 Abaqus/Standard 3DEXPERIENCE R2017x                  DATE 24-Mai-2022 TIME 17:26:43
 SUMMARY OF JOB INFORMATION:
 STEP  INC ATT SEVERE EQUIL TOTAL  TOTAL      STEP       INC OF       DOF    IF
               DISCON ITERS ITERS  TIME/    TIME/LPF    TIME/LPF    MONITOR RIKS
               ITERS               FREQ
   1     1   1     0     2     2  1.00       1.00       1.000     
   1     2   1     0     1     1  2.00       2.00       1.000     
   1     3   1     0     1     1  3.00       3.00       1.000     
   1     4   1     0     1     1  4.00       4.00       1.000     
   1     5   1     0     1     1  5.00       5.00       1.000     
   1     6   1     0     1     1  6.00       6.00       1.000     
   1     7   1     0     1     1  7.00       7.00       1.000     
   1     8   1     0     1     1  8.00       8.00       1.000     
   1     9   1     0     1     1  9.00       9.00       1.000     
   1    10   1     0     1     1  10.0       10.0       1.000     
   1    11   1     0     1     1  11.0       11.0       1.000     
   1    12   1     0     1     1  12.0       12.0       1.000     
   1    13   1     0     1     1  13.0       13.0       1.000     
   1    14   1     0     1     1  14.0       14.0       1.000     
   1    15   1     0     2     2  15.0       15.0       1.000     
   1    16   1     0     2     2  16.0       16.0       1.000     
   1    17   1     0     2     2  17.0       17.0       1.000     
   1    18   1     0     2     2  18.0       18.0       1.000     
   1    19   1     0     2     2  19.0       19.0       1.000     
   1    20   1     0     2     2  20.0       20.0       1.000     
   1    21   1     0     2     2  21.0       21.0       1.000     
   1    22   1     0     2     2  22.0       22.0       1.000     
   1    23   1     0     2     2  23.0       23.0       1.000     
   1    24   1     0     2     2  24.0       24.0       1.000     
   1    25   1     0     2     2  25.0       25.0       1.000     
   1    26   1     0     2     2  26.0       26.0       1.000     
   1    27   1     0     2     2  27.0       27.0       1.000     
   1    28   1     0     2     2  28.0       28.0       1.000     
   1    29   1     0     1     1  29.0       29.0       1.000     
   1    30   1     0     1     1  30.0       30.0       1.000     
   1    31   1     0     1     1  31.0       31.0       1.000     
   1    32   1     0     1     1  32.0       32.0       1.000     
   1    33   1     0     1     1  33.0       33.0       1.000     
   1    34   1     0     1     1  34.0       34.0       1.000     
   1    35   1     0     1     1  35.0       35.0       1.000     
   1    36   1     0     1     1  36.0       36.0       1.000     
   1    37   1     0     1     1  37.0       37.0       1.000     
   1    38   1     0     1     1  38.0       38.0       1.000     
   1    39   1     0     1     1  39.0       39.0       1.000     
   1    40   1     0     1     1  40.0       40.0       1.000     
   1    41   1     0     1     1  41.0       41.0       1.000     
   1    42   1     0     1     1  42.0       42.0       1.000     
   1    43   1     0     1     1  43.0       43.0       1.000     
   1    44   1     0     1     1  44.0       44.0       1.000     
   1    45   1     0     1     1  45.0       45.0       1.000     
   1    46   1     0     1     1  46.0       46.0       1.000     
   1    47   1     0     1     1  47.0       47.0       1.000     
   1    48   1     0     1     1  48.0       48.0       1.000     
   1    49   1     0     1     1  49.0       49.0       1.000     
   1    50   1     0     1     1  50.0       50.0       1.000     
   1    51   1     0     1     1  51.0       51.0       1.000     
   1    52   1     0     1     1  52.0       52.0       1.000     
   1    53   1     0     1     1  53.0       53.0       1.000     
   1    54   1     0     1     1  54.0       54.0       1.000     
   1    55   1     0     1     1  55.0       55.0       1.000     
   1    56   1     0     1     1  56.0       56.0       1.000     
   1    57   1     0     1     1  57.0       57.0       1.000     
   1    58   1     0     1     1  58.0       58.0       1.000     
   1    59   1     0     1     1  59.0       59.0       1.000     
   1    60   1     0     1     1  60.0       60.0       1.000     
   1    61   1     0     1     1  61.0       61.0       1.000     
   1    62   1     0     1     1  62.0       62.0       1.000     
   1    63   1     0     1     1  63.0       63.0       1.000     
   1    64   1     0     1     1  64.0       64.0       1.000     
   1    65   1     0     1     1  65.0       65.0       1.000     
   1    66   1     0     1     1  66.0       66.0       1.000     
   1    67   1     0     1     1  67.0       67.0       1.000     
   1    68   1     0     1     1  68.0       68.0       1.000     
   1    69   1     0     1     1  69.0       69.0       1.000     
   1    70   1     0     1     1  70.0       70.0       1.000     
   1    71   1     0     1     1  71.0       71.0       1.000     
   1    72   1     0     1     1  72.0       72.0       1.000     
   1    73   1     0     1     1  73.0       73.0       1.000     
   1    74   1     0     1     1  74.0       74.0       1.000     
   1    75   1     0     1     1  75.0       75.0       1.000     
   1    76   1     0     1     1  76.0       76.0       1.000     
   1    77   1     0     1     1  77.0       77.0       1.000     
   1    78   1     0     1     1  78.0       78.0       1.000     
   1    79   1     0     1     1  79.0       79.0       1.000     
   1    80   1     0     1     1  80.0       80.0       1.000     
   1    81   1     0     1     1  81.0       81.0       1.000     
   1    82   1     0     1     1  82.0       82.0       1.000     
   1    83   1     0     1     1  83.0       83.0       1.000     
   1    84   1     0     1     1  84.0       84.0       1.000     
   1    85   1     0     1     1  85.0       85.0       1.000     
   1    86   1     0     1     1  86.0       86.0       1.000     
   1    87   1     0     1     1  87.0       87.0       1.000     
   1    88   1     0     1     1  88.0       88.0       1.000     
   1    89   1     0     1     1  89.0       89.0       1.000     
   1    90   1     0     1     1  90.0       90.0       1.000     
   1    91   1     0     1     1  91.0       91.0       1.000     
   1    92   1     0     1     1  92.0       92.0       1.000     
   1    93   1     0     1     1  93.0       93.0       1.000     
   1    94   1     0     1     1  94.0       94.0       1.000     
   1    95   1     0     1     1  95.0       95.0       1.000     
   1    96   1     0     1     1  96.0       96.0       1.000     
   1    97   1     0     1     1  97.0       97.0       1.000     
   1    98   1     0     1     1  98.0       98.0       1.000     
   1    99   1     0     1     1  99.0       99.0       1.000     
   1   100   1     0     1     1  100.       100.       1.000     
   1   101   1     0     1     1  101.       101.       1.000     
   1   102   1     0     1     1  102.       102.       1.000     
   1   103   1     0     1     1  103.       103.       1.000     
   1   104   1     0     1     1  104.       104.       1.000     
   1   105   1     0     1     1  105.       105.       1.000     
   1   106   1     0     1     1  106.       106.       1.000     
   1   107   1     0     1     1  107.       107.       1.000     
   1   108   1     0     1     1  108.       108.       1.000     
   1   109   1     0     1     1  109.       109.       1.000     
   1   110   1     0     1     1  110.       110.       1.000     
   1   111   1     0     1     1  111.       111.       1.000     
   1   112   1     0     1     1  112.       112.       1.000     
   1   113   1     0     1     1  113.       113.       1.000     
   1   114   1     0     1     1  114.       114.       1.000     
   1   115   1     0     1     1  115.       115.       1.000     
   1   116   1     0     1     1  116.       116.       1.000     
   1   117   1     0     1     1  117.       117.       1.000     
   1   118   1     0     1     1  118.       118.       1.000     
   1   119   1     0     1     1  119.       119.       1.000     
   1   120   1     0     1     1  120.       120.       1.000     
   1   121   1     0     1     1  121.       121.       1.000     
   1   122   1     0     1     1  122.       122.       1.000     
   1   123   1     0     1     1  123.       123.       1.000     
   1   124   1     0     1     1  124.       124.       1.000     
   1   125   1     0     1     1  125.       125.       1.000     
   1   126   1     0     1     1  126.       126.       1.000     
   1   127   1     0     1     1  127.       127.       1.000     
   1   128   1     0     1     1  128.       128.       1.000     
   1   129   1     0     1     1  129.       129.       1.000     
   1   130   1     0     1     1  130.       130.       1.000     
   1   131   1     0     1     1  131.       131.       1.000     
   1   132   1     0     1     1  132.       132.       1.000     
   1   133   1     0     1     1  133.       133.       1.000     
   1   134   1     0     1     1  134.       134.       1.000     
   1   135   1     0     1     1  135.       135.       1.000     
   1   136   1     0     1     1  136.       136.       1.000     
   1   137   1     0     1     1  137.       137.       1.000     
   1   138   1     0     1     1  138.       138.       1.000     
   1   139   1     0     1     1  139.       139.       1.000     
   1   140   1     0     1     1  140.       140.       1.000     
   1   141   1     0     1     1  141.       141.       1.000     
   1   142   1     0     1     1  142.       142.       1.000     
   1   143   1     0     1     1  143.       143.       1.000     
   1   144   1     0     1     1  144.       144.       1.000     
   1   145   1     0     1     1  145.       145.       1.000     
   1   146   1     0     1     1  146.       146.       1.000     
   1   147   1     0     1     1  147.       147.       1.000     
   1   148   1     0     1     1  148.       148.       1.000     
   1   149   1     0     1     1  149.       149.       1.000     
   1   150   1     0     1     1  150.       150.       1.000     
   1   151   1     0     1     1  151.       151.       1.000     
   1   152   1     0     1     1  152.       152.       1.000     
   1   153   1     0     1     1  153.       153.       1.000     
   1   154   1     0     1     1  154.       154.       1.000     
   1   155   1     0     1     1  155.       155.       1.000     
   1   156   1     0     1     1  156.       156.       1.000     
   1   157   1     0     1     1  157.       157.       1.000     
   1   158   1     0     1     1  158.       158.       1.000     
   1   159   1     0     1     1  159.       159.       1.000     
   1   160   1     0     1     1  160.       160.       1.000     
   1   161   1     0     1     1  161.       161.       1.000     
   1   162   1     0     1     1  162.       162.       1.000     
   1   163   1     0     1     1  163.       163.       1.000     
   1   164   1     0     1     1  164.       164.       1.000     
   1   165   1     0     1     1  165.       165.       1.000     
   1   166   1     0     1     1  166.       166.       1.000     
   1   167   1     0     1     1  167.       167.       1.000     
   1   168   1     0     1     1  168.       168.       1.000     
   1   169   1     0     1     1  169.       169.       1.000     
   1   170   1     0     1     1  170.       170.       1.000     
   1   171   1     0     1     1  171.       171.       1.000     
   1   172   1     0     1     1  172.       172.       1.000     
   1   173   1     0     1     1  173.       173.       1.000     
   1   174   1     0     1     1  174.       174.       1.000     
   1   175   1     0     1     1  175.       175.       1.000     
   1   176   1     0     1     1  176.       176.       1.000     
   1   177   1     0     1     1  177.       177.       1.000     
   1   178   1     0     1     1  178.       178.       1.000     
   1   179   1     0     1     1  179.       179.       1.000     
   1   180   1     0     1     1  180.       180.       1.000     
   1   181   1     0     1     1  181.       181.       1.000     
   1   182   1     0     1     1  182.       182.       1.000     
   1   183   1     0     1     1  183.       183.       1.000     
   1   184   1     0     1     1  184.       184.       1.000     
   1   185   1     0     2     2  185.       185.       1.000     
   1   186   1     0     2     2  186.       186.       1.000     
   1   187   1     0     2     2  187.       187.       1.000     
   1   188   1     0     2     2  188.       188.       1.000     
   1   189   1     0     2     2  189.       189.       1.000     
   1   190   1     0     2     2  190.       190.       1.000     
   1   191   1     0     2     2  191.       191.       1.000     
   1   192   1     0     2     2  192.       192.       1.000     
   1   193   1     0     2     2  193.       193.       1.000     
   1   194   1     0     2     2  194.       194.       1.000     
   1   195   1     0     2     2  195.       195.       1.000     
   1   196   1     0     2     2  196.       196.       1.000     
   1   197   1     0     2     2  197.       197.       1.000     
   1   198   1     0     2     2  198.       198.       1.000     
   1   199   1     0     2     2  199.       199.       1.000     
   1   200   1     0     2     2  200.       200.       1.000     
   1   201   1     0     2     2  201.       201.       1.000     
   1   202   1     0     2     2  202.       202.       1.000     
   1   203   1     0     2     2  203.       203.       1.000     
   1   204   1     0     2     2  204.       204.       1.000     
   1   205   1     0     2     2  205.       205.       1.000     
   1   206   1     0     2     2  206.       206.       1.000     
   1   207   1     0     2     2  207.       207.       1.000     
   1   208   1     0     2     2  208.       208.       1.000     
   1   209   1     0     2     2  209.       209.       1.000     
   1   210   1     0     2     2  210.       210.       1.000     
   1   211   1     0     2     2  211.       211.       1.000     
   1   212   1     0     2     2  212.       212.       1.000     
   1   213   1     0     2     2  213.       213.       1.000     
   1   214   1     0     2     2  214.       214.       1.000     
   1   215   1     0     2     2  215.       215.       1.000     
   1   216   1     0     2     2  216.       216.       1.000     
   1   217   1     0     2     2  217.       217.       1.000     
   1   218   1     0     2     2  218.       218.       1.000     
   1   219   1     0     2     2  219.       219.       1.000     
   1   220   1     0     2     2  220.       220.       1.000     
   1   221   1     0     2     2  221.       221.       1.000     
   1   222   1     0     2     2  222.       222.       1.000     
   1   223   1     0     2     2  223.       223.       1.000     
   1   224   1     0     2     2  224.       224.       1.000     
   1   225   1     0     2     2  225.       225.       1.000     
   1   226   1     0     2     2  226.       226.       1.000     
   1   227   1     0     2     2  227.       227.       1.000     
   1   228   1     0     3     3  228.       228.       1.000     
   1   229   1     0     3     3  229.       229.       1.000     
   1   230   1     0     3     3  230.       230.       1.000     
   1   231   1     0     3     3  231.       231.       1.000     
   1   232   1     0     3     3  232.       232.       1.000     
   1   233   1     0     3     3  233.       233.       1.000     
   1   234   1     0     3     3  234.       234.       1.000     
   1   235   1     0     3     3  235.       235.       1.000     
   1   236   1     0     3     3  236.       236.       1.000     
   1   237   1     0     3     3  237.       237.       1.000     
   1   238   1U    0     2     2  237.       237.       1.000     
   1   238   2     0     2     2  238.       238.       0.5000    
   1   239   1     0     3     3  238.       238.       0.5500    
   1   240   1     0     3     3  239.       239.       0.6050    
   1   241   1     0     3     3  239.       239.       0.6655    
   1   242   1     0     3     3  240.       240.       0.7321    
   1   243   1     0     3     3  241.       241.       0.8053    
   1   244   1     0     3     3  242.       242.       0.8858    
   1   245   1     0     3     3  243.       243.       0.9744    
   1   246   1     0     3     3  244.       244.       1.000     
   1   247   1     0     3     3  245.       245.       1.000     
   1   248   1     0     3     3  246.       246.       1.000     
   1   249   1     0     4     4  247.       247.       1.000     
   1   250   1U    0     2     2  247.       247.       1.000     
   1   250   2     0     2     2  247.       247.       0.5000    
   1   251   1     0     2     2  248.       248.       0.5500    
   1   252   1     0     2     2  248.       248.       0.6050    
   1   253   1     0     2     2  249.       249.       0.6655    
   1   254   1     0     2     2  250.       250.       0.7321    
   1   255   1     0     2     2  250.       250.       0.2295    
                          
 THE ANALYSIS HAS COMPLETED SUCCESSFULLY
