1

   Abaqus 3DEXPERIENCE R2017x                                  Date 24-Mai-2022   Time 17:26:42
   For use by RUHR UNIVERSITAET BOCHUM under license from Dassault Systemes or its subsidiary.

                                                                                 
                                                                                 
 STEP    1     INCREMENT     1     STEP TIME    0.00    


                        S T E P       1     S T A T I C   A N A L Y S I S


                                                                                          

     AUTOMATIC TIME CONTROL WITH -
          A SUGGESTED INITIAL TIME INCREMENT OF                 1.00    
          AND A TOTAL TIME PERIOD OF                            250.    
          THE MINIMUM TIME INCREMENT ALLOWED IS                1.000E-03
          THE MAXIMUM TIME INCREMENT ALLOWED IS                 1.00    

     LINEAR EQUATION SOLVER TYPE         ITERATIVE
     RELATIVE TOLERANCE OF CONVERGENCE   1.000E-05
     MAXIMUM NUMBER OF ITERATIONS        200

 CONVERGENCE TOLERANCE PARAMETERS FOR FORCE    
     CRITERION FOR RESIDUAL FORCE     FOR A NONLINEAR PROBLEM          5.000E-03
     CRITERION FOR DISP.    CORRECTION IN A NONLINEAR PROBLEM          1.000E-02
     INITIAL VALUE OF TIME AVERAGE FORCE                               1.000E-02
     AVERAGE FORCE     IS TIME AVERAGE FORCE    
     ALTERNATE CRIT. FOR RESIDUAL FORCE     FOR A NONLINEAR PROBLEM    2.000E-02
     CRITERION FOR ZERO FORCE     RELATIVE TO TIME AVRG. FORCE         1.000E-05
     CRITERION FOR RESIDUAL FORCE     WHEN THERE IS ZERO FLUX          1.000E-05
     CRITERION FOR DISP.    CORRECTION WHEN THERE IS ZERO FLUX         1.000E-03
     CRITERION FOR RESIDUAL FORCE     FOR A LINEAR INCREMENT           1.000E-08
     FIELD CONVERSION RATIO                                             1.00    
     CRITERION FOR ZERO FORCE     REL. TO TIME AVRG. MAX. FORCE        1.000E-05
     CRITERION FOR ZERO DISP.    RELATIVE TO CHARACTERISTIC LENGTH     1.000E-08

     VOLUMETRIC STRAIN COMPATIBILITY TOLERANCE FOR HYBRID SOLIDS       1.000E-05
     AXIAL STRAIN COMPATIBILITY TOLERANCE FOR HYBRID BEAMS             1.000E-05
     TRANS. SHEAR STRAIN COMPATIBILITY TOLERANCE FOR HYBRID BEAMS      1.000E-05
     SOFT CONTACT CONSTRAINT COMPATIBILITY TOLERANCE FOR P>P0          5.000E-03
     SOFT CONTACT CONSTRAINT COMPATIBILITY TOLERANCE FOR P=0.0         0.100    
     CONTACT FORCE ERROR TOLERANCE FOR CONVERT SDI=YES                 1.00    
     DISPLACEMENT COMPATIBILITY TOLERANCE FOR DCOUP ELEMENTS           1.000E-05
     ROTATION COMPATIBILITY TOLERANCE FOR DCOUP ELEMENTS               1.000E-05

 EQUILIBRIUM WILL BE CHECKED FOR SEVERE DISCONTINUITY ITERATIONS

 TIME INCREMENTATION CONTROL PARAMETERS:
 *** FIRST EQUILIBRIUM ITERATION FOR CONSECUTIVE DIVERGENCE CHECK             35
 *** EQUILIBRIUM ITERATION AT WHICH LOG. CONVERGENCE RATE CHECK BEGINS        50
     EQUILIBRIUM ITERATION AFTER WHICH ALTERNATE RESIDUAL IS USED              9
 *** MAXIMUM EQUILIBRIUM ITERATIONS ALLOWED                                   50
 *** EQUILIBRIUM ITERATION COUNT FOR CUT-BACK IN NEXT INCREMENT               28
 *** MAXIMUM EQUILIB. ITERS IN TWO INCREMENTS FOR TIME INCREMENT INCREASE      5
     MAXIMUM ITERATIONS FOR SEVERE DISCONTINUITIES                            50
 *** MAXIMUM ATTEMPTS ALLOWED IN AN INCREMENT                                 45
     MAXIMUM DISCON. ITERS IN TWO INCREMENTS FOR TIME INCREMENT INCREASE      50
     MAXIMUM CONTACT AUGMENTATIONS FOR *SURFACE BEHAVIOR,AUGMENTED LAGRANGE   50
     CUT-BACK FACTOR AFTER DIVERGENCE                                 0.2500    
     CUT-BACK FACTOR FOR TOO SLOW CONVERGENCE                         0.5000    
     CUT-BACK FACTOR AFTER TOO MANY EQUILIBRIUM ITERATIONS            0.7500    
     CUT-BACK FACTOR AFTER TOO MANY SEVERE DISCONTINUITY ITERATIONS   0.2500    
     CUT-BACK FACTOR AFTER PROBLEMS IN ELEMENT ASSEMBLY               0.2500    
     INCREASE FACTOR AFTER TWO INCREMENTS THAT CONVERGE QUICKLY        1.500    
     MAX. TIME INCREMENT INCREASE FACTOR ALLOWED                       1.500    
     MAX. TIME INCREMENT INCREASE FACTOR ALLOWED (DYNAMICS)            1.250    
     MAX. TIME INCREMENT INCREASE FACTOR ALLOWED (DIFFUSION)           2.000    
     MINIMUM TIME INCREMENT RATIO FOR EXTRAPOLATION TO OCCUR          0.1000    
     MAX. RATIO OF TIME INCREMENT TO STABILITY LIMIT                   1.000    
     FRACTION OF STABILITY LIMIT FOR NEW TIME INCREMENT               0.9500    
     TIME INCREMENT INCREASE FACTOR BEFORE A TIME POINT                1.000    

 *** INDICATES USE OF NON-DEFAULT TIME INCREMENTATION CONTROL PARAMETER
     SELECTED WITH *CONTROLS
     GLOBAL STABILIZATION CONTROL IS NOT USED

          PRINT OF INCREMENT NUMBER, TIME, ETC., EVERY    1  INCREMENTS

 LINE SEARCH TOLERANCE PARAMETERS:
     MAXIMUM NUMBER OF ZERO-FINDING ITERATIONS                                 0
     MAXIMUM CORRECTION SCALE FACTOR                                    1.00    
     MINIMUM CORRECTION SCALE FACTOR                                   1.000E-04
     RESIDUAL REDUCTION FACTOR TO END LINE SEARCHING                   0.250    
     RATIO OF NEW TO OLD SCALE FACTORS TO END LINE SEARCHING           0.100    

     THE MAXIMUM NUMBER OF INCREMENTS IN THIS STEP IS                  500000

          LARGE DISPLACEMENT THEORY WILL BE USED

          UNSYMMETRIC MATRIX STORAGE AND SOLUTION WILL BE USED

     LINEAR EXTRAPOLATION WILL BE USED

     CHARACTERISTIC ELEMENT LENGTH     3.167E-02

     DETAILS REGARDING ACTUAL SOLUTION WAVEFRONT REQUESTED

     DETAILED OUTPUT OF DIAGNOSTICS TO DATABASE REQUESTED

     PRINT OF INCREMENT NUMBER, TIME, ETC., TO THE MESSAGE FILE EVERY     1  INCREMENTS
  
     MODEL DECOMPOSITION USED FOR PARALLEL ELEMENT OPERATIONS:
  
        PROCESS          ELEMENTS          NODES          INTERFACE
       ---------        ----------        -------        -----------
           1                  181            507                376
           2                  183            431                337
           3                  183            487                367
           4                  182            364                308
  

     ELEMENT OPERATIONS WILL BE CARRIED OUT IN PARALLEL USING   4 PROCESSORS

     COLLECTING MODEL CONSTRAINT INFORMATION FOR OVERCONSTRAINT CHECKS

     COLLECTING STEP CONSTRAINT INFORMATION FOR OVERCONSTRAINT CHECKS


  INCREMENT     1 STARTS. ATTEMPT NUMBER  1, TIME INCREMENT   1.00    
 
 START OF ITERATIVE SOLVER, NUMBER OF EQUATIONS = 2196 NUMBER OF RHS = 1
 
 ITERATIVE SOLVER CONVERGED.
 NUM. ITERATIONS =   10 RELATIVE RESIDUAL NORM =  5.221e-06 RHS NORM =  1.666e-01
 
 END OF ITERATIVE SOLVER
 ELAPSED WALLCLOCK TIME (SEC) = 0.1


               CONVERGENCE CHECKS FOR EQUILIBRIUM ITERATION     1


 AVERAGE FORCE                      2.268E-04   TIME AVG. FORCE       2.268E-04
 LARGEST RESIDUAL FORCE             3.641E-06   AT NODE         44   DOF  3
   INSTANCE: PART-1-1                                                                        
 LARGEST INCREMENT OF DISP.         2.935E-06   AT NODE        188   DOF  3
   INSTANCE: PART-1-1                                                                        
 LARGEST CORRECTION TO DISP.        2.935E-06   AT NODE        188   DOF  3
   INSTANCE: PART-1-1                                                                        
          FORCE     EQUILIBRIUM NOT ACHIEVED WITHIN TOLERANCE.
 
 START OF ITERATIVE SOLVER, NUMBER OF EQUATIONS = 2196 NUMBER OF RHS = 1
 
 ITERATIVE SOLVER CONVERGED.
 NUM. ITERATIONS =   11 RELATIVE RESIDUAL NORM =  1.298e-05 RHS NORM =  3.805e-06
 
 END OF ITERATIVE SOLVER
 ELAPSED WALLCLOCK TIME (SEC) = 0.0


               CONVERGENCE CHECKS FOR EQUILIBRIUM ITERATION     2


 AVERAGE FORCE                      2.268E-04   TIME AVG. FORCE       2.268E-04
 LARGEST RESIDUAL FORCE             1.246E-11   AT NODE         44   DOF  3
   INSTANCE: PART-1-1                                                                        
 LARGEST INCREMENT OF DISP.         2.935E-06   AT NODE        188   DOF  3
   INSTANCE: PART-1-1                                                                        
 LARGEST CORRECTION TO DISP.        5.046E-11   AT NODE        642   DOF  3
   INSTANCE: PART-1-1                                                                        
          THE FORCE     EQUILIBRIUM EQUATIONS HAVE CONVERGED

 ITERATION SUMMARY FOR THE INCREMENT:   2 TOTAL ITERATIONS, OF WHICH
   0 ARE SEVERE DISCONTINUITY ITERATIONS AND  2 ARE EQUILIBRIUM ITERATIONS.

 TIME INCREMENT COMPLETED   1.00    ,  FRACTION OF STEP COMPLETED  4.000E-03
 STEP TIME COMPLETED        1.00    ,  TOTAL TIME COMPLETED         1.00    


  INCREMENT     2 STARTS. ATTEMPT NUMBER  1, TIME INCREMENT   1.00    
 
 START OF ITERATIVE SOLVER, NUMBER OF EQUATIONS = 2196 NUMBER OF RHS = 1
 
 ITERATIVE SOLVER CONVERGED.
 NUM. ITERATIONS =   10 RELATIVE RESIDUAL NORM =  7.504e-06 RHS NORM =  6.002e-06
 
 END OF ITERATIVE SOLVER
 ELAPSED WALLCLOCK TIME (SEC) = 0.0


               CONVERGENCE CHECKS FOR EQUILIBRIUM ITERATION     1


 AVERAGE FORCE                      4.560E-04   TIME AVG. FORCE       3.414E-04
 LARGEST RESIDUAL FORCE             4.471E-11   AT NODE         44   DOF  3
   INSTANCE: PART-1-1                                                                        
 LARGEST INCREMENT OF DISP.         2.936E-06   AT NODE        188   DOF  3
   INSTANCE: PART-1-1                                                                        
 LARGEST CORRECTION TO DISP.        9.485E-11   AT NODE        188   DOF  3
   INSTANCE: PART-1-1                                                                        
          THE FORCE     EQUILIBRIUM EQUATIONS HAVE CONVERGED

 ITERATION SUMMARY FOR THE INCREMENT:   1 TOTAL ITERATIONS, OF WHICH
   0 ARE SEVERE DISCONTINUITY ITERATIONS AND  1 ARE EQUILIBRIUM ITERATIONS.

 TIME INCREMENT COMPLETED   1.00    ,  FRACTION OF STEP COMPLETED  8.000E-03
 STEP TIME COMPLETED        2.00    ,  TOTAL TIME COMPLETED         2.00    


  INCREMENT     3 STARTS. ATTEMPT NUMBER  1, TIME INCREMENT   1.00    
 
 START OF ITERATIVE SOLVER, NUMBER OF EQUATIONS = 2196 NUMBER OF RHS = 1
 
 ITERATIVE SOLVER CONVERGED.
 NUM. ITERATIONS =    9 RELATIVE RESIDUAL NORM =  2.012e-05 RHS NORM =  6.003e-06
 
 END OF ITERATIVE SOLVER
 ELAPSED WALLCLOCK TIME (SEC) = 0.0


               CONVERGENCE CHECKS FOR EQUILIBRIUM ITERATION     1


 AVERAGE FORCE                      6.841E-04   TIME AVG. FORCE       4.556E-04
 LARGEST RESIDUAL FORCE             1.252E-10   AT NODE         46   DOF  2
   INSTANCE: PART-1-1                                                                        
 LARGEST INCREMENT OF DISP.         2.936E-06   AT NODE        188   DOF  3
   INSTANCE: PART-1-1                                                                        
 LARGEST CORRECTION TO DISP.        9.485E-11   AT NODE        188   DOF  3
   INSTANCE: PART-1-1                                                                        
          THE FORCE     EQUILIBRIUM EQUATIONS HAVE CONVERGED

 ITERATION SUMMARY FOR THE INCREMENT:   1 TOTAL ITERATIONS, OF WHICH
   0 ARE SEVERE DISCONTINUITY ITERATIONS AND  1 ARE EQUILIBRIUM ITERATIONS.

 TIME INCREMENT COMPLETED   1.00    ,  FRACTION OF STEP COMPLETED  1.200E-02
 STEP TIME COMPLETED        3.00    ,  TOTAL TIME COMPLETED         3.00    


  INCREMENT     4 STARTS. ATTEMPT NUMBER  1, TIME INCREMENT   1.00    
 
 START OF ITERATIVE SOLVER, NUMBER OF EQUATIONS = 2196 NUMBER OF RHS = 1
 
 ITERATIVE SOLVER CONVERGED.
 NUM. ITERATIONS =   11 RELATIVE RESIDUAL NORM =  9.570e-07 RHS NORM =  6.003e-06
 
 END OF ITERATIVE SOLVER
 ELAPSED WALLCLOCK TIME (SEC) = 0.0


               CONVERGENCE CHECKS FOR EQUILIBRIUM ITERATION     1


 AVERAGE FORCE                      9.121E-04   TIME AVG. FORCE       5.697E-04
 LARGEST RESIDUAL FORCE             7.687E-11   AT NODE         64   DOF  1
   INSTANCE: PART-1-1                                                                        
 LARGEST INCREMENT OF DISP.         2.936E-06   AT NODE        188   DOF  3
   INSTANCE: PART-1-1                                                                        
 LARGEST CORRECTION TO DISP.        9.486E-11   AT NODE        188   DOF  3
   INSTANCE: PART-1-1                                                                        
          THE FORCE     EQUILIBRIUM EQUATIONS HAVE CONVERGED

 ITERATION SUMMARY FOR THE INCREMENT:   1 TOTAL ITERATIONS, OF WHICH
   0 ARE SEVERE DISCONTINUITY ITERATIONS AND  1 ARE EQUILIBRIUM ITERATIONS.

 TIME INCREMENT COMPLETED   1.00    ,  FRACTION OF STEP COMPLETED  1.600E-02
 STEP TIME COMPLETED        4.00    ,  TOTAL TIME COMPLETED         4.00    


  INCREMENT     5 STARTS. ATTEMPT NUMBER  1, TIME INCREMENT   1.00    
 
 START OF ITERATIVE SOLVER, NUMBER OF EQUATIONS = 2196 NUMBER OF RHS = 1
 
 ITERATIVE SOLVER CONVERGED.
 NUM. ITERATIONS =   10 RELATIVE RESIDUAL NORM =  6.568e-06 RHS NORM =  6.003e-06
 
 END OF ITERATIVE SOLVER
 ELAPSED WALLCLOCK TIME (SEC) = 0.0


               CONVERGENCE CHECKS FOR EQUILIBRIUM ITERATION     1


 AVERAGE FORCE                      1.140E-03   TIME AVG. FORCE       6.838E-04
 LARGEST RESIDUAL FORCE             1.059E-10   AT NODE         46   DOF  2
   INSTANCE: PART-1-1                                                                        
 LARGEST INCREMENT OF DISP.         2.936E-06   AT NODE        188   DOF  3
   INSTANCE: PART-1-1                                                                        
 LARGEST CORRECTION TO DISP.        9.487E-11   AT NODE        188   DOF  3
   INSTANCE: PART-1-1                                                                        
          THE FORCE     EQUILIBRIUM EQUATIONS HAVE CONVERGED

 ITERATION SUMMARY FOR THE INCREMENT:   1 TOTAL ITERATIONS, OF WHICH
   0 ARE SEVERE DISCONTINUITY ITERATIONS AND  1 ARE EQUILIBRIUM ITERATIONS.

 TIME INCREMENT COMPLETED   1.00    ,  FRACTION OF STEP COMPLETED  2.000E-02
 STEP TIME COMPLETED        5.00    ,  TOTAL TIME COMPLETED         5.00    


  INCREMENT     6 STARTS. ATTEMPT NUMBER  1, TIME INCREMENT   1.00    
 
 START OF ITERATIVE SOLVER, NUMBER OF EQUATIONS = 2196 NUMBER OF RHS = 1
 
 ITERATIVE SOLVER CONVERGED.
 NUM. ITERATIONS =    9 RELATIVE RESIDUAL NORM =  8.091e-06 RHS NORM =  6.004e-06
 
 END OF ITERATIVE SOLVER
 ELAPSED WALLCLOCK TIME (SEC) = 0.0


               CONVERGENCE CHECKS FOR EQUILIBRIUM ITERATION     1


 AVERAGE FORCE                      1.368E-03   TIME AVG. FORCE       7.979E-04
 LARGEST RESIDUAL FORCE            -1.824E-10   AT NODE         44   DOF  3
   INSTANCE: PART-1-1                                                                        
 LARGEST INCREMENT OF DISP.         2.936E-06   AT NODE        188   DOF  3
   INSTANCE: PART-1-1                                                                        
 LARGEST CORRECTION TO DISP.        9.489E-11   AT NODE        188   DOF  3
   INSTANCE: PART-1-1                                                                        
          THE FORCE     EQUILIBRIUM EQUATIONS HAVE CONVERGED

 ITERATION SUMMARY FOR THE INCREMENT:   1 TOTAL ITERATIONS, OF WHICH
   0 ARE SEVERE DISCONTINUITY ITERATIONS AND  1 ARE EQUILIBRIUM ITERATIONS.

 TIME INCREMENT COMPLETED   1.00    ,  FRACTION OF STEP COMPLETED  2.400E-02
 STEP TIME COMPLETED        6.00    ,  TOTAL TIME COMPLETED         6.00    


  INCREMENT     7 STARTS. ATTEMPT NUMBER  1, TIME INCREMENT   1.00    
 
 START OF ITERATIVE SOLVER, NUMBER OF EQUATIONS = 2196 NUMBER OF RHS = 1
 
 ITERATIVE SOLVER CONVERGED.
 NUM. ITERATIONS =   11 RELATIVE RESIDUAL NORM =  2.100e-06 RHS NORM =  6.006e-06
 
 END OF ITERATIVE SOLVER
 ELAPSED WALLCLOCK TIME (SEC) = 0.1


               CONVERGENCE CHECKS FOR EQUILIBRIUM ITERATION     1


 AVERAGE FORCE                      1.596E-03   TIME AVG. FORCE       9.119E-04
 LARGEST RESIDUAL FORCE            -1.997E-10   AT NODE         44   DOF  3
   INSTANCE: PART-1-1                                                                        
 LARGEST INCREMENT OF DISP.         2.936E-06   AT NODE        188   DOF  3
   INSTANCE: PART-1-1                                                                        
 LARGEST CORRECTION TO DISP.        9.512E-11   AT NODE        188   DOF  3
   INSTANCE: PART-1-1                                                                        
          THE FORCE     EQUILIBRIUM EQUATIONS HAVE CONVERGED

 ITERATION SUMMARY FOR THE INCREMENT:   1 TOTAL ITERATIONS, OF WHICH
   0 ARE SEVERE DISCONTINUITY ITERATIONS AND  1 ARE EQUILIBRIUM ITERATIONS.

 TIME INCREMENT COMPLETED   1.00    ,  FRACTION OF STEP COMPLETED  2.800E-02
 STEP TIME COMPLETED        7.00    ,  TOTAL TIME COMPLETED         7.00    


  INCREMENT     8 STARTS. ATTEMPT NUMBER  1, TIME INCREMENT   1.00    
 
 START OF ITERATIVE SOLVER, NUMBER OF EQUATIONS = 2196 NUMBER OF RHS = 1
 
 ITERATIVE SOLVER CONVERGED.
 NUM. ITERATIONS =   10 RELATIVE RESIDUAL NORM =  3.154e-06 RHS NORM =  6.043e-06
 
 END OF ITERATIVE SOLVER
 ELAPSED WALLCLOCK TIME (SEC) = 0.0


               CONVERGENCE CHECKS FOR EQUILIBRIUM ITERATION     1


 AVERAGE FORCE                      1.824E-03   TIME AVG. FORCE       1.026E-03
 LARGEST RESIDUAL FORCE            -2.139E-10   AT NODE         44   DOF  3
   INSTANCE: PART-1-1                                                                        
 LARGEST INCREMENT OF DISP.         2.936E-06   AT NODE        188   DOF  3
   INSTANCE: PART-1-1                                                                        
 LARGEST CORRECTION TO DISP.        9.824E-11   AT NODE        188   DOF  3
   INSTANCE: PART-1-1                                                                        
          THE FORCE     EQUILIBRIUM EQUATIONS HAVE CONVERGED

 ITERATION SUMMARY FOR THE INCREMENT:   1 TOTAL ITERATIONS, OF WHICH
   0 ARE SEVERE DISCONTINUITY ITERATIONS AND  1 ARE EQUILIBRIUM ITERATIONS.

 TIME INCREMENT COMPLETED   1.00    ,  FRACTION OF STEP COMPLETED  3.200E-02
 STEP TIME COMPLETED        8.00    ,  TOTAL TIME COMPLETED         8.00    


  INCREMENT     9 STARTS. ATTEMPT NUMBER  1, TIME INCREMENT   1.00    
 
 START OF ITERATIVE SOLVER, NUMBER OF EQUATIONS = 2196 NUMBER OF RHS = 1
 
 ITERATIVE SOLVER CONVERGED.
 NUM. ITERATIONS =    9 RELATIVE RESIDUAL NORM =  4.062e-06 RHS NORM =  6.517e-06
 
 END OF ITERATIVE SOLVER
 ELAPSED WALLCLOCK TIME (SEC) = 0.0


               CONVERGENCE CHECKS FOR EQUILIBRIUM ITERATION     1


 AVERAGE FORCE                      2.052E-03   TIME AVG. FORCE       1.140E-03
 LARGEST RESIDUAL FORCE            -3.028E-10   AT NODE         44   DOF  3
   INSTANCE: PART-1-1                                                                        
 LARGEST INCREMENT OF DISP.         2.936E-06   AT NODE        188   DOF  3
   INSTANCE: PART-1-1                                                                        
 LARGEST CORRECTION TO DISP.        1.292E-10   AT NODE        188   DOF  3
   INSTANCE: PART-1-1                                                                        
          THE FORCE     EQUILIBRIUM EQUATIONS HAVE CONVERGED

 ITERATION SUMMARY FOR THE INCREMENT:   1 TOTAL ITERATIONS, OF WHICH
   0 ARE SEVERE DISCONTINUITY ITERATIONS AND  1 ARE EQUILIBRIUM ITERATIONS.

 TIME INCREMENT COMPLETED   1.00    ,  FRACTION OF STEP COMPLETED  3.600E-02
 STEP TIME COMPLETED        9.00    ,  TOTAL TIME COMPLETED         9.00    


  INCREMENT    10 STARTS. ATTEMPT NUMBER  1, TIME INCREMENT   1.00    
 
 START OF ITERATIVE SOLVER, NUMBER OF EQUATIONS = 2196 NUMBER OF RHS = 1
 
 ITERATIVE SOLVER CONVERGED.
 NUM. ITERATIONS =   10 RELATIVE RESIDUAL NORM =  7.997e-06 RHS NORM =  1.362e-05
 
 END OF ITERATIVE SOLVER
 ELAPSED WALLCLOCK TIME (SEC) = 0.0


               CONVERGENCE CHECKS FOR EQUILIBRIUM ITERATION     1


 AVERAGE FORCE                      2.280E-03   TIME AVG. FORCE       1.254E-03
 LARGEST RESIDUAL FORCE            -6.390E-10   AT NODE         44   DOF  3
   INSTANCE: PART-1-1                                                                        
 LARGEST INCREMENT OF DISP.         2.937E-06   AT NODE        188   DOF  3
   INSTANCE: PART-1-1                                                                        
 LARGEST CORRECTION TO DISP.        3.696E-10   AT NODE        508   DOF  3
   INSTANCE: PART-1-1                                                                        
          THE FORCE     EQUILIBRIUM EQUATIONS HAVE CONVERGED

 ITERATION SUMMARY FOR THE INCREMENT:   1 TOTAL ITERATIONS, OF WHICH
   0 ARE SEVERE DISCONTINUITY ITERATIONS AND  1 ARE EQUILIBRIUM ITERATIONS.

 TIME INCREMENT COMPLETED   1.00    ,  FRACTION OF STEP COMPLETED  4.000E-02
 STEP TIME COMPLETED        10.0    ,  TOTAL TIME COMPLETED         10.0    


  INCREMENT    11 STARTS. ATTEMPT NUMBER  1, TIME INCREMENT   1.00    
 
 START OF ITERATIVE SOLVER, NUMBER OF EQUATIONS = 2196 NUMBER OF RHS = 1
 
 ITERATIVE SOLVER CONVERGED.
 NUM. ITERATIONS =   10 RELATIVE RESIDUAL NORM =  5.977e-06 RHS NORM =  6.825e-05
 
 END OF ITERATIVE SOLVER
 ELAPSED WALLCLOCK TIME (SEC) = 0.0


               CONVERGENCE CHECKS FOR EQUILIBRIUM ITERATION     1


 AVERAGE FORCE                      2.508E-03   TIME AVG. FORCE       1.368E-03
 LARGEST RESIDUAL FORCE             3.374E-09   AT NODE         64   DOF  1
   INSTANCE: PART-1-1                                                                        
 LARGEST INCREMENT OF DISP.         2.938E-06   AT NODE        188   DOF  3
   INSTANCE: PART-1-1                                                                        
 LARGEST CORRECTION TO DISP.        1.867E-09   AT NODE        508   DOF  3
   INSTANCE: PART-1-1                                                                        
          THE FORCE     EQUILIBRIUM EQUATIONS HAVE CONVERGED

 ITERATION SUMMARY FOR THE INCREMENT:   1 TOTAL ITERATIONS, OF WHICH
   0 ARE SEVERE DISCONTINUITY ITERATIONS AND  1 ARE EQUILIBRIUM ITERATIONS.

 TIME INCREMENT COMPLETED   1.00    ,  FRACTION OF STEP COMPLETED  4.400E-02
 STEP TIME COMPLETED        11.0    ,  TOTAL TIME COMPLETED         11.0    


  INCREMENT    12 STARTS. ATTEMPT NUMBER  1, TIME INCREMENT   1.00    
 
 START OF ITERATIVE SOLVER, NUMBER OF EQUATIONS = 2196 NUMBER OF RHS = 1
 
 ITERATIVE SOLVER CONVERGED.
 NUM. ITERATIONS =   10 RELATIVE RESIDUAL NORM =  4.207e-05 RHS NORM =  3.119e-04
 
 END OF ITERATIVE SOLVER
 ELAPSED WALLCLOCK TIME (SEC) = 0.0


               CONVERGENCE CHECKS FOR EQUILIBRIUM ITERATION     1


 AVERAGE FORCE                      2.736E-03   TIME AVG. FORCE       1.482E-03
 LARGEST RESIDUAL FORCE             5.675E-08   AT NODE         64   DOF  1
   INSTANCE: PART-1-1                                                                        
 LARGEST INCREMENT OF DISP.         2.947E-06   AT NODE        188   DOF  3
   INSTANCE: PART-1-1                                                                        
 LARGEST CORRECTION TO DISP.        8.926E-09   AT NODE        508   DOF  3
   INSTANCE: PART-1-1                                                                        
          THE FORCE     EQUILIBRIUM EQUATIONS HAVE CONVERGED

 ITERATION SUMMARY FOR THE INCREMENT:   1 TOTAL ITERATIONS, OF WHICH
   0 ARE SEVERE DISCONTINUITY ITERATIONS AND  1 ARE EQUILIBRIUM ITERATIONS.

 TIME INCREMENT COMPLETED   1.00    ,  FRACTION OF STEP COMPLETED  4.800E-02
 STEP TIME COMPLETED        12.0    ,  TOTAL TIME COMPLETED         12.0    


  INCREMENT    13 STARTS. ATTEMPT NUMBER  1, TIME INCREMENT   1.00    
 
 START OF ITERATIVE SOLVER, NUMBER OF EQUATIONS = 2196 NUMBER OF RHS = 1
 
 ITERATIVE SOLVER CONVERGED.
 NUM. ITERATIONS =   11 RELATIVE RESIDUAL NORM =  2.013e-05 RHS NORM =  1.069e-03
 
 END OF ITERATIVE SOLVER
 ELAPSED WALLCLOCK TIME (SEC) = 0.0


               CONVERGENCE CHECKS FOR EQUILIBRIUM ITERATION     1


 AVERAGE FORCE                      2.963E-03   TIME AVG. FORCE       1.596E-03
 LARGEST RESIDUAL FORCE             4.222E-07   AT NODE         64   DOF  1
   INSTANCE: PART-1-1                                                                        
 LARGEST INCREMENT OF DISP.         2.978E-06   AT NODE        188   DOF  3
   INSTANCE: PART-1-1                                                                        
 LARGEST CORRECTION TO DISP.        3.195E-08   AT NODE        505   DOF  3
   INSTANCE: PART-1-1                                                                        
 ESTIMATE OF DISP.    CORRECTION    1.774E-11
 FORCE     EQUILIB. ACCEPTED BASED ON SMALL RESIDUAL AND ESTIMATED CORRECTION

 ITERATION SUMMARY FOR THE INCREMENT:   1 TOTAL ITERATIONS, OF WHICH
   0 ARE SEVERE DISCONTINUITY ITERATIONS AND  1 ARE EQUILIBRIUM ITERATIONS.

 TIME INCREMENT COMPLETED   1.00    ,  FRACTION OF STEP COMPLETED  5.200E-02
 STEP TIME COMPLETED        13.0    ,  TOTAL TIME COMPLETED         13.0    


  INCREMENT    14 STARTS. ATTEMPT NUMBER  1, TIME INCREMENT   1.00    
 
 START OF ITERATIVE SOLVER, NUMBER OF EQUATIONS = 2196 NUMBER OF RHS = 1
 
 ITERATIVE SOLVER CONVERGED.
 NUM. ITERATIONS =   11 RELATIVE RESIDUAL NORM =  1.462e-05 RHS NORM =  2.875e-03
 
 END OF ITERATIVE SOLVER
 ELAPSED WALLCLOCK TIME (SEC) = 0.0


               CONVERGENCE CHECKS FOR EQUILIBRIUM ITERATION     1


 AVERAGE FORCE                      3.192E-03   TIME AVG. FORCE       1.710E-03
 LARGEST RESIDUAL FORCE             5.112E-06   AT NODE         44   DOF  3
   INSTANCE: PART-1-1                                                                        
 LARGEST INCREMENT OF DISP.         3.052E-06   AT NODE        188   DOF  3
   INSTANCE: PART-1-1                                                                        
 LARGEST CORRECTION TO DISP.        8.174E-08   AT NODE        505   DOF  3
   INSTANCE: PART-1-1                                                                        
 ESTIMATE OF DISP.    CORRECTION    1.823E-10
 FORCE     EQUILIB. ACCEPTED BASED ON SMALL RESIDUAL AND ESTIMATED CORRECTION

 ITERATION SUMMARY FOR THE INCREMENT:   1 TOTAL ITERATIONS, OF WHICH
   0 ARE SEVERE DISCONTINUITY ITERATIONS AND  1 ARE EQUILIBRIUM ITERATIONS.

 TIME INCREMENT COMPLETED   1.00    ,  FRACTION OF STEP COMPLETED  5.600E-02
 STEP TIME COMPLETED        14.0    ,  TOTAL TIME COMPLETED         14.0    


  INCREMENT    15 STARTS. ATTEMPT NUMBER  1, TIME INCREMENT   1.00    
 
 START OF ITERATIVE SOLVER, NUMBER OF EQUATIONS = 2196 NUMBER OF RHS = 1
 
 ITERATIVE SOLVER CONVERGED.
 NUM. ITERATIONS =   10 RELATIVE RESIDUAL NORM =  8.646e-06 RHS NORM =  5.798e-03
 
 END OF ITERATIVE SOLVER
 ELAPSED WALLCLOCK TIME (SEC) = 0.0


               CONVERGENCE CHECKS FOR EQUILIBRIUM ITERATION     1


 AVERAGE FORCE                      3.423E-03   TIME AVG. FORCE       1.824E-03
 LARGEST RESIDUAL FORCE             1.900E-05   AT NODE         44   DOF  3
   INSTANCE: PART-1-1                                                                        
 LARGEST INCREMENT OF DISP.         3.190E-06   AT NODE        188   DOF  3
   INSTANCE: PART-1-1                                                                        
 LARGEST CORRECTION TO DISP.        1.471E-07   AT NODE        507   DOF  3
   INSTANCE: PART-1-1                                                                        
          FORCE     EQUILIBRIUM NOT ACHIEVED WITHIN TOLERANCE.
 
 START OF ITERATIVE SOLVER, NUMBER OF EQUATIONS = 2196 NUMBER OF RHS = 1
 
 ITERATIVE SOLVER CONVERGED.
 NUM. ITERATIONS =   10 RELATIVE RESIDUAL NORM =  3.024e-05 RHS NORM =  2.473e-05
 
 END OF ITERATIVE SOLVER
 ELAPSED WALLCLOCK TIME (SEC) = 0.0


               CONVERGENCE CHECKS FOR EQUILIBRIUM ITERATION     2


 AVERAGE FORCE                      3.423E-03   TIME AVG. FORCE       1.824E-03
 LARGEST RESIDUAL FORCE             2.371E-09   AT NODE         46   DOF  2
   INSTANCE: PART-1-1                                                                        
 LARGEST INCREMENT OF DISP.         3.191E-06   AT NODE        188   DOF  3
   INSTANCE: PART-1-1                                                                        
 LARGEST CORRECTION TO DISP.        7.656E-10   AT NODE        505   DOF  3
   INSTANCE: PART-1-1                                                                        
          THE FORCE     EQUILIBRIUM EQUATIONS HAVE CONVERGED

 ITERATION SUMMARY FOR THE INCREMENT:   2 TOTAL ITERATIONS, OF WHICH
   0 ARE SEVERE DISCONTINUITY ITERATIONS AND  2 ARE EQUILIBRIUM ITERATIONS.

 TIME INCREMENT COMPLETED   1.00    ,  FRACTION OF STEP COMPLETED  6.000E-02
 STEP TIME COMPLETED        15.0    ,  TOTAL TIME COMPLETED         15.0    


  INCREMENT    16 STARTS. ATTEMPT NUMBER  1, TIME INCREMENT   1.00    
 
 START OF ITERATIVE SOLVER, NUMBER OF EQUATIONS = 2196 NUMBER OF RHS = 1
 
 ITERATIVE SOLVER CONVERGED.
 NUM. ITERATIONS =   13 RELATIVE RESIDUAL NORM =  5.903e-07 RHS NORM =  9.140e-03
 
 END OF ITERATIVE SOLVER
 ELAPSED WALLCLOCK TIME (SEC) = 0.0


               CONVERGENCE CHECKS FOR EQUILIBRIUM ITERATION     1


 AVERAGE FORCE                      3.653E-03   TIME AVG. FORCE       1.938E-03
 LARGEST RESIDUAL FORCE             4.521E-05   AT NODE         44   DOF  3
   INSTANCE: PART-1-1                                                                        
 LARGEST INCREMENT OF DISP.         3.413E-06   AT NODE        188   DOF  3
   INSTANCE: PART-1-1                                                                        
 LARGEST CORRECTION TO DISP.        2.263E-07   AT NODE        507   DOF  3
   INSTANCE: PART-1-1                                                                        
          FORCE     EQUILIBRIUM NOT ACHIEVED WITHIN TOLERANCE.
 
 START OF ITERATIVE SOLVER, NUMBER OF EQUATIONS = 2196 NUMBER OF RHS = 1
 
 ITERATIVE SOLVER CONVERGED.
 NUM. ITERATIONS =   13 RELATIVE RESIDUAL NORM =  1.478e-06 RHS NORM =  6.489e-05
 
 END OF ITERATIVE SOLVER
 ELAPSED WALLCLOCK TIME (SEC) = 0.0


               CONVERGENCE CHECKS FOR EQUILIBRIUM ITERATION     2


 AVERAGE FORCE                      3.652E-03   TIME AVG. FORCE       1.938E-03
 LARGEST RESIDUAL FORCE             1.322E-08   AT NODE         46   DOF  2
   INSTANCE: PART-1-1                                                                        
 LARGEST INCREMENT OF DISP.         3.415E-06   AT NODE        188   DOF  3
   INSTANCE: PART-1-1                                                                        
 LARGEST CORRECTION TO DISP.        1.877E-09   AT NODE        507   DOF  3
   INSTANCE: PART-1-1                                                                        
          THE FORCE     EQUILIBRIUM EQUATIONS HAVE CONVERGED

 ITERATION SUMMARY FOR THE INCREMENT:   2 TOTAL ITERATIONS, OF WHICH
   0 ARE SEVERE DISCONTINUITY ITERATIONS AND  2 ARE EQUILIBRIUM ITERATIONS.

 TIME INCREMENT COMPLETED   1.00    ,  FRACTION OF STEP COMPLETED  6.400E-02
 STEP TIME COMPLETED        16.0    ,  TOTAL TIME COMPLETED         16.0    


  INCREMENT    17 STARTS. ATTEMPT NUMBER  1, TIME INCREMENT   1.00    
 
 START OF ITERATIVE SOLVER, NUMBER OF EQUATIONS = 2196 NUMBER OF RHS = 1
 
 ITERATIVE SOLVER CONVERGED.
 NUM. ITERATIONS =   13 RELATIVE RESIDUAL NORM =  2.329e-07 RHS NORM =  1.253e-02
 
 END OF ITERATIVE SOLVER
 ELAPSED WALLCLOCK TIME (SEC) = 0.0


               CONVERGENCE CHECKS FOR EQUILIBRIUM ITERATION     1


 AVERAGE FORCE                      3.883E-03   TIME AVG. FORCE       2.053E-03
 LARGEST RESIDUAL FORCE             1.062E-04   AT NODE         44   DOF  3
   INSTANCE: PART-1-1                                                                        
 LARGEST INCREMENT OF DISP.         3.744E-06   AT NODE        188   DOF  3
   INSTANCE: PART-1-1                                                                        
 LARGEST CORRECTION TO DISP.        3.287E-07   AT NODE        188   DOF  3
   INSTANCE: PART-1-1                                                                        
          FORCE     EQUILIBRIUM NOT ACHIEVED WITHIN TOLERANCE.
 
 START OF ITERATIVE SOLVER, NUMBER OF EQUATIONS = 2196 NUMBER OF RHS = 1
 
 ITERATIVE SOLVER CONVERGED.
 NUM. ITERATIONS =   12 RELATIVE RESIDUAL NORM =  7.956e-06 RHS NORM =  1.536e-04
 
 END OF ITERATIVE SOLVER
 ELAPSED WALLCLOCK TIME (SEC) = 0.0


               CONVERGENCE CHECKS FOR EQUILIBRIUM ITERATION     2


 AVERAGE FORCE                      3.883E-03   TIME AVG. FORCE       2.053E-03
 LARGEST RESIDUAL FORCE             5.324E-08   AT NODE         64   DOF  1
   INSTANCE: PART-1-1                                                                        
 LARGEST INCREMENT OF DISP.         3.748E-06   AT NODE        188   DOF  3
   INSTANCE: PART-1-1                                                                        
 LARGEST CORRECTION TO DISP.        4.623E-09   AT NODE         67   DOF  3
   INSTANCE: PART-1-1                                                                        
          THE FORCE     EQUILIBRIUM EQUATIONS HAVE CONVERGED

 ITERATION SUMMARY FOR THE INCREMENT:   2 TOTAL ITERATIONS, OF WHICH
   0 ARE SEVERE DISCONTINUITY ITERATIONS AND  2 ARE EQUILIBRIUM ITERATIONS.

 TIME INCREMENT COMPLETED   1.00    ,  FRACTION OF STEP COMPLETED  6.800E-02
 STEP TIME COMPLETED        17.0    ,  TOTAL TIME COMPLETED         17.0    


  INCREMENT    18 STARTS. ATTEMPT NUMBER  1, TIME INCREMENT   1.00    
 
 START OF ITERATIVE SOLVER, NUMBER OF EQUATIONS = 2196 NUMBER OF RHS = 1
 
 ITERATIVE SOLVER CONVERGED.
 NUM. ITERATIONS =   13 RELATIVE RESIDUAL NORM =  4.661e-06 RHS NORM =  1.499e-02
 
 END OF ITERATIVE SOLVER
 ELAPSED WALLCLOCK TIME (SEC) = 0.0


               CONVERGENCE CHECKS FOR EQUILIBRIUM ITERATION     1


 AVERAGE FORCE                      4.116E-03   TIME AVG. FORCE       2.167E-03
 LARGEST RESIDUAL FORCE             1.921E-04   AT NODE         44   DOF  3
   INSTANCE: PART-1-1                                                                        
 LARGEST INCREMENT OF DISP.         4.163E-06   AT NODE        188   DOF  3
   INSTANCE: PART-1-1                                                                        
 LARGEST CORRECTION TO DISP.        4.197E-07   AT NODE          7   DOF  3
   INSTANCE: PART-1-1                                                                        
          FORCE     EQUILIBRIUM NOT ACHIEVED WITHIN TOLERANCE.
 
 START OF ITERATIVE SOLVER, NUMBER OF EQUATIONS = 2196 NUMBER OF RHS = 1
 
 ITERATIVE SOLVER CONVERGED.
 NUM. ITERATIONS =   12 RELATIVE RESIDUAL NORM =  5.938e-06 RHS NORM =  2.703e-04
 
 END OF ITERATIVE SOLVER
 ELAPSED WALLCLOCK TIME (SEC) = 0.0


               CONVERGENCE CHECKS FOR EQUILIBRIUM ITERATION     2


 AVERAGE FORCE                      4.116E-03   TIME AVG. FORCE       2.167E-03
 LARGEST RESIDUAL FORCE             1.618E-07   AT NODE         64   DOF  1
   INSTANCE: PART-1-1                                                                        
 LARGEST INCREMENT OF DISP.         4.172E-06   AT NODE        188   DOF  3
   INSTANCE: PART-1-1                                                                        
 LARGEST CORRECTION TO DISP.        8.492E-09   AT NODE         67   DOF  3
   INSTANCE: PART-1-1                                                                        
          THE FORCE     EQUILIBRIUM EQUATIONS HAVE CONVERGED

 ITERATION SUMMARY FOR THE INCREMENT:   2 TOTAL ITERATIONS, OF WHICH
   0 ARE SEVERE DISCONTINUITY ITERATIONS AND  2 ARE EQUILIBRIUM ITERATIONS.

 TIME INCREMENT COMPLETED   1.00    ,  FRACTION OF STEP COMPLETED  7.200E-02
 STEP TIME COMPLETED        18.0    ,  TOTAL TIME COMPLETED         18.0    


  INCREMENT    19 STARTS. ATTEMPT NUMBER  1, TIME INCREMENT   1.00    
 
 START OF ITERATIVE SOLVER, NUMBER OF EQUATIONS = 2196 NUMBER OF RHS = 1
 
 ITERATIVE SOLVER CONVERGED.
 NUM. ITERATIONS =   11 RELATIVE RESIDUAL NORM =  2.106e-06 RHS NORM =  1.544e-02
 
 END OF ITERATIVE SOLVER
 ELAPSED WALLCLOCK TIME (SEC) = 0.0


               CONVERGENCE CHECKS FOR EQUILIBRIUM ITERATION     1


 AVERAGE FORCE                      4.350E-03   TIME AVG. FORCE       2.282E-03
 LARGEST RESIDUAL FORCE             2.497E-04   AT NODE         44   DOF  3
   INSTANCE: PART-1-1                                                                        
 LARGEST INCREMENT OF DISP.         4.618E-06   AT NODE        188   DOF  3
   INSTANCE: PART-1-1                                                                        
 LARGEST CORRECTION TO DISP.        4.852E-07   AT NODE          7   DOF  3
   INSTANCE: PART-1-1                                                                        
          FORCE     EQUILIBRIUM NOT ACHIEVED WITHIN TOLERANCE.
 
 START OF ITERATIVE SOLVER, NUMBER OF EQUATIONS = 2196 NUMBER OF RHS = 1
 
 ITERATIVE SOLVER CONVERGED.
 NUM. ITERATIONS =   11 RELATIVE RESIDUAL NORM =  2.894e-06 RHS NORM =  3.321e-04
 
 END OF ITERATIVE SOLVER
 ELAPSED WALLCLOCK TIME (SEC) = 0.0


               CONVERGENCE CHECKS FOR EQUILIBRIUM ITERATION     2


 AVERAGE FORCE                      4.350E-03   TIME AVG. FORCE       2.282E-03
 LARGEST RESIDUAL FORCE             2.616E-07   AT NODE         64   DOF  1
   INSTANCE: PART-1-1                                                                        
 LARGEST INCREMENT OF DISP.         4.629E-06   AT NODE        188   DOF  3
   INSTANCE: PART-1-1                                                                        
 LARGEST CORRECTION TO DISP.        1.163E-08   AT NODE          7   DOF  3
   INSTANCE: PART-1-1                                                                        
          THE FORCE     EQUILIBRIUM EQUATIONS HAVE CONVERGED

 ITERATION SUMMARY FOR THE INCREMENT:   2 TOTAL ITERATIONS, OF WHICH
   0 ARE SEVERE DISCONTINUITY ITERATIONS AND  2 ARE EQUILIBRIUM ITERATIONS.

 TIME INCREMENT COMPLETED   1.00    ,  FRACTION OF STEP COMPLETED  7.600E-02
 STEP TIME COMPLETED        19.0    ,  TOTAL TIME COMPLETED         19.0    


  INCREMENT    20 STARTS. ATTEMPT NUMBER  1, TIME INCREMENT   1.00    
 
 START OF ITERATIVE SOLVER, NUMBER OF EQUATIONS = 2196 NUMBER OF RHS = 1
 
 ITERATIVE SOLVER CONVERGED.
 NUM. ITERATIONS =   11 RELATIVE RESIDUAL NORM =  6.858e-06 RHS NORM =  1.437e-02
 
 END OF ITERATIVE SOLVER
 ELAPSED WALLCLOCK TIME (SEC) = 0.0


               CONVERGENCE CHECKS FOR EQUILIBRIUM ITERATION     1


 AVERAGE FORCE                      4.591E-03   TIME AVG. FORCE       2.398E-03
 LARGEST RESIDUAL FORCE             2.544E-04   AT NODE         44   DOF  3
   INSTANCE: PART-1-1                                                                        
 LARGEST INCREMENT OF DISP.         5.071E-06   AT NODE        188   DOF  3
   INSTANCE: PART-1-1                                                                        
 LARGEST CORRECTION TO DISP.        4.931E-07   AT NODE          7   DOF  3
   INSTANCE: PART-1-1                                                                        
          FORCE     EQUILIBRIUM NOT ACHIEVED WITHIN TOLERANCE.
 
 START OF ITERATIVE SOLVER, NUMBER OF EQUATIONS = 2196 NUMBER OF RHS = 1
 
 ITERATIVE SOLVER CONVERGED.
 NUM. ITERATIONS =   11 RELATIVE RESIDUAL NORM =  5.620e-06 RHS NORM =  3.246e-04
 
 END OF ITERATIVE SOLVER
 ELAPSED WALLCLOCK TIME (SEC) = 0.0


               CONVERGENCE CHECKS FOR EQUILIBRIUM ITERATION     2


 AVERAGE FORCE                      4.592E-03   TIME AVG. FORCE       2.398E-03
 LARGEST RESIDUAL FORCE             2.829E-07   AT NODE         64   DOF  1
   INSTANCE: PART-1-1                                                                        
 LARGEST INCREMENT OF DISP.         5.081E-06   AT NODE        188   DOF  3
   INSTANCE: PART-1-1                                                                        
 LARGEST CORRECTION TO DISP.        1.205E-08   AT NODE          7   DOF  3
   INSTANCE: PART-1-1                                                                        
          THE FORCE     EQUILIBRIUM EQUATIONS HAVE CONVERGED

 ITERATION SUMMARY FOR THE INCREMENT:   2 TOTAL ITERATIONS, OF WHICH
   0 ARE SEVERE DISCONTINUITY ITERATIONS AND  2 ARE EQUILIBRIUM ITERATIONS.

 TIME INCREMENT COMPLETED   1.00    ,  FRACTION OF STEP COMPLETED  8.000E-02
 STEP TIME COMPLETED        20.0    ,  TOTAL TIME COMPLETED         20.0    


  INCREMENT    21 STARTS. ATTEMPT NUMBER  1, TIME INCREMENT   1.00    
 
 START OF ITERATIVE SOLVER, NUMBER OF EQUATIONS = 2196 NUMBER OF RHS = 1
 
 ITERATIVE SOLVER CONVERGED.
 NUM. ITERATIONS =   12 RELATIVE RESIDUAL NORM =  2.020e-06 RHS NORM =  1.287e-02
 
 END OF ITERATIVE SOLVER
 ELAPSED WALLCLOCK TIME (SEC) = 0.0


               CONVERGENCE CHECKS FOR EQUILIBRIUM ITERATION     1


 AVERAGE FORCE                      4.837E-03   TIME AVG. FORCE       2.514E-03
 LARGEST RESIDUAL FORCE             2.247E-04   AT NODE         44   DOF  3
   INSTANCE: PART-1-1                                                                        
 LARGEST INCREMENT OF DISP.         5.512E-06   AT NODE        188   DOF  3
   INSTANCE: PART-1-1                                                                        
 LARGEST CORRECTION TO DISP.        4.908E-07   AT NODE        267   DOF  3
   INSTANCE: PART-1-1                                                                        
          FORCE     EQUILIBRIUM NOT ACHIEVED WITHIN TOLERANCE.
 
 START OF ITERATIVE SOLVER, NUMBER OF EQUATIONS = 2196 NUMBER OF RHS = 1
 
 ITERATIVE SOLVER CONVERGED.
 NUM. ITERATIONS =   11 RELATIVE RESIDUAL NORM =  2.307e-06 RHS NORM =  2.818e-04
 
 END OF ITERATIVE SOLVER
 ELAPSED WALLCLOCK TIME (SEC) = 0.0


               CONVERGENCE CHECKS FOR EQUILIBRIUM ITERATION     2


 AVERAGE FORCE                      4.836E-03   TIME AVG. FORCE       2.514E-03
 LARGEST RESIDUAL FORCE             2.570E-07   AT NODE         64   DOF  1
   INSTANCE: PART-1-1                                                                        
 LARGEST INCREMENT OF DISP.         5.522E-06   AT NODE        188   DOF  3
   INSTANCE: PART-1-1                                                                        
 LARGEST CORRECTION TO DISP.        1.140E-08   AT NODE        267   DOF  3
   INSTANCE: PART-1-1                                                                        
          THE FORCE     EQUILIBRIUM EQUATIONS HAVE CONVERGED

 ITERATION SUMMARY FOR THE INCREMENT:   2 TOTAL ITERATIONS, OF WHICH
   0 ARE SEVERE DISCONTINUITY ITERATIONS AND  2 ARE EQUILIBRIUM ITERATIONS.

 TIME INCREMENT COMPLETED   1.00    ,  FRACTION OF STEP COMPLETED  8.400E-02
 STEP TIME COMPLETED        21.0    ,  TOTAL TIME COMPLETED         21.0    


  INCREMENT    22 STARTS. ATTEMPT NUMBER  1, TIME INCREMENT   1.00    
 
 START OF ITERATIVE SOLVER, NUMBER OF EQUATIONS = 2196 NUMBER OF RHS = 1
 
 ITERATIVE SOLVER CONVERGED.
 NUM. ITERATIONS =   10 RELATIVE RESIDUAL NORM =  1.123e-05 RHS NORM =  1.120e-02
 
 END OF ITERATIVE SOLVER
 ELAPSED WALLCLOCK TIME (SEC) = 0.0


               CONVERGENCE CHECKS FOR EQUILIBRIUM ITERATION     1


 AVERAGE FORCE                      5.085E-03   TIME AVG. FORCE       2.631E-03
 LARGEST RESIDUAL FORCE             1.716E-04   AT NODE         44   DOF  3
   INSTANCE: PART-1-1                                                                        
 LARGEST INCREMENT OF DISP.         5.924E-06   AT NODE        188   DOF  3
   INSTANCE: PART-1-1                                                                        
 LARGEST CORRECTION TO DISP.        4.612E-07   AT NODE        267   DOF  3
   INSTANCE: PART-1-1                                                                        
          FORCE     EQUILIBRIUM NOT ACHIEVED WITHIN TOLERANCE.
 
 START OF ITERATIVE SOLVER, NUMBER OF EQUATIONS = 2196 NUMBER OF RHS = 1
 
 ITERATIVE SOLVER CONVERGED.
 NUM. ITERATIONS =   11 RELATIVE RESIDUAL NORM =  1.799e-05 RHS NORM =  2.152e-04
 
 END OF ITERATIVE SOLVER
 ELAPSED WALLCLOCK TIME (SEC) = 0.0


               CONVERGENCE CHECKS FOR EQUILIBRIUM ITERATION     2


 AVERAGE FORCE                      5.086E-03   TIME AVG. FORCE       2.631E-03
 LARGEST RESIDUAL FORCE             2.017E-07   AT NODE         64   DOF  1
   INSTANCE: PART-1-1                                                                        
 LARGEST INCREMENT OF DISP.         5.933E-06   AT NODE        188   DOF  3
   INSTANCE: PART-1-1                                                                        
 LARGEST CORRECTION TO DISP.        9.666E-09   AT NODE        267   DOF  3
   INSTANCE: PART-1-1                                                                        
          THE FORCE     EQUILIBRIUM EQUATIONS HAVE CONVERGED

 ITERATION SUMMARY FOR THE INCREMENT:   2 TOTAL ITERATIONS, OF WHICH
   0 ARE SEVERE DISCONTINUITY ITERATIONS AND  2 ARE EQUILIBRIUM ITERATIONS.

 TIME INCREMENT COMPLETED   1.00    ,  FRACTION OF STEP COMPLETED  8.800E-02
 STEP TIME COMPLETED        22.0    ,  TOTAL TIME COMPLETED         22.0    


  INCREMENT    23 STARTS. ATTEMPT NUMBER  1, TIME INCREMENT   1.00    
 
 START OF ITERATIVE SOLVER, NUMBER OF EQUATIONS = 2196 NUMBER OF RHS = 1
 
 ITERATIVE SOLVER CONVERGED.
 NUM. ITERATIONS =   12 RELATIVE RESIDUAL NORM =  8.112e-06 RHS NORM =  9.496e-03
 
 END OF ITERATIVE SOLVER
 ELAPSED WALLCLOCK TIME (SEC) = 0.0


               CONVERGENCE CHECKS FOR EQUILIBRIUM ITERATION     1


 AVERAGE FORCE                      5.334E-03   TIME AVG. FORCE       2.748E-03
 LARGEST RESIDUAL FORCE             1.178E-04   AT NODE         44   DOF  3
   INSTANCE: PART-1-1                                                                        
 LARGEST INCREMENT OF DISP.         6.286E-06   AT NODE        188   DOF  3
   INSTANCE: PART-1-1                                                                        
 LARGEST CORRECTION TO DISP.        4.043E-07   AT NODE        267   DOF  3
   INSTANCE: PART-1-1                                                                        
          FORCE     EQUILIBRIUM NOT ACHIEVED WITHIN TOLERANCE.
 
 START OF ITERATIVE SOLVER, NUMBER OF EQUATIONS = 2196 NUMBER OF RHS = 1
 
 ITERATIVE SOLVER CONVERGED.
 NUM. ITERATIONS =   11 RELATIVE RESIDUAL NORM =  4.609e-06 RHS NORM =  1.520e-04
 
 END OF ITERATIVE SOLVER
 ELAPSED WALLCLOCK TIME (SEC) = 0.0


               CONVERGENCE CHECKS FOR EQUILIBRIUM ITERATION     2


 AVERAGE FORCE                      5.335E-03   TIME AVG. FORCE       2.748E-03
 LARGEST RESIDUAL FORCE             1.469E-07   AT NODE         46   DOF  2
   INSTANCE: PART-1-1                                                                        
 LARGEST INCREMENT OF DISP.         6.292E-06   AT NODE        188   DOF  3
   INSTANCE: PART-1-1                                                                        
 LARGEST CORRECTION TO DISP.        7.295E-09   AT NODE        267   DOF  3
   INSTANCE: PART-1-1                                                                        
          THE FORCE     EQUILIBRIUM EQUATIONS HAVE CONVERGED

 ITERATION SUMMARY FOR THE INCREMENT:   2 TOTAL ITERATIONS, OF WHICH
   0 ARE SEVERE DISCONTINUITY ITERATIONS AND  2 ARE EQUILIBRIUM ITERATIONS.

 TIME INCREMENT COMPLETED   1.00    ,  FRACTION OF STEP COMPLETED  9.200E-02
 STEP TIME COMPLETED        23.0    ,  TOTAL TIME COMPLETED         23.0    


  INCREMENT    24 STARTS. ATTEMPT NUMBER  1, TIME INCREMENT   1.00    
 
 START OF ITERATIVE SOLVER, NUMBER OF EQUATIONS = 2196 NUMBER OF RHS = 1
 
 ITERATIVE SOLVER CONVERGED.
 NUM. ITERATIONS =   13 RELATIVE RESIDUAL NORM =  1.730e-05 RHS NORM =  7.979e-03
 
 END OF ITERATIVE SOLVER
 ELAPSED WALLCLOCK TIME (SEC) = 0.0


               CONVERGENCE CHECKS FOR EQUILIBRIUM ITERATION     1


 AVERAGE FORCE                      5.582E-03   TIME AVG. FORCE       2.866E-03
 LARGEST RESIDUAL FORCE             7.949E-05   AT NODE         44   DOF  3
   INSTANCE: PART-1-1                                                                        
 LARGEST INCREMENT OF DISP.         6.591E-06   AT NODE        188   DOF  3
   INSTANCE: PART-1-1                                                                        
 LARGEST CORRECTION TO DISP.        3.387E-07   AT NODE        267   DOF  3
   INSTANCE: PART-1-1                                                                        
          FORCE     EQUILIBRIUM NOT ACHIEVED WITHIN TOLERANCE.
 
 START OF ITERATIVE SOLVER, NUMBER OF EQUATIONS = 2196 NUMBER OF RHS = 1
 
 ITERATIVE SOLVER CONVERGED.
 NUM. ITERATIONS =   13 RELATIVE RESIDUAL NORM =  3.552e-06 RHS NORM =  1.078e-04
 
 END OF ITERATIVE SOLVER
 ELAPSED WALLCLOCK TIME (SEC) = 0.0


               CONVERGENCE CHECKS FOR EQUILIBRIUM ITERATION     2


 AVERAGE FORCE                      5.582E-03   TIME AVG. FORCE       2.866E-03
 LARGEST RESIDUAL FORCE             1.104E-07   AT NODE         46   DOF  2
   INSTANCE: PART-1-1                                                                        
 LARGEST INCREMENT OF DISP.         6.595E-06   AT NODE        188   DOF  3
   INSTANCE: PART-1-1                                                                        
 LARGEST CORRECTION TO DISP.        5.207E-09   AT NODE        267   DOF  3
   INSTANCE: PART-1-1                                                                        
          THE FORCE     EQUILIBRIUM EQUATIONS HAVE CONVERGED

 ITERATION SUMMARY FOR THE INCREMENT:   2 TOTAL ITERATIONS, OF WHICH
   0 ARE SEVERE DISCONTINUITY ITERATIONS AND  2 ARE EQUILIBRIUM ITERATIONS.

 TIME INCREMENT COMPLETED   1.00    ,  FRACTION OF STEP COMPLETED  9.600E-02
 STEP TIME COMPLETED        24.0    ,  TOTAL TIME COMPLETED         24.0    


  INCREMENT    25 STARTS. ATTEMPT NUMBER  1, TIME INCREMENT   1.00    
 
 START OF ITERATIVE SOLVER, NUMBER OF EQUATIONS = 2196 NUMBER OF RHS = 1
 
 ITERATIVE SOLVER CONVERGED.
 NUM. ITERATIONS =   12 RELATIVE RESIDUAL NORM =  1.471e-05 RHS NORM =  6.764e-03
 
 END OF ITERATIVE SOLVER
 ELAPSED WALLCLOCK TIME (SEC) = 0.0


               CONVERGENCE CHECKS FOR EQUILIBRIUM ITERATION     1


 AVERAGE FORCE                      5.839E-03   TIME AVG. FORCE       2.985E-03
 LARGEST RESIDUAL FORCE             5.544E-05   AT NODE         44   DOF  3
   INSTANCE: PART-1-1                                                                        
 LARGEST INCREMENT OF DISP.         6.846E-06   AT NODE        188   DOF  3
   INSTANCE: PART-1-1                                                                        
 LARGEST CORRECTION TO DISP.        2.780E-07   AT NODE        644   DOF  3
   INSTANCE: PART-1-1                                                                        
          FORCE     EQUILIBRIUM NOT ACHIEVED WITHIN TOLERANCE.
 
 START OF ITERATIVE SOLVER, NUMBER OF EQUATIONS = 2196 NUMBER OF RHS = 1
 
 ITERATIVE SOLVER CONVERGED.
 NUM. ITERATIONS =   11 RELATIVE RESIDUAL NORM =  9.653e-06 RHS NORM =  7.881e-05
 
 END OF ITERATIVE SOLVER
 ELAPSED WALLCLOCK TIME (SEC) = 0.0


               CONVERGENCE CHECKS FOR EQUILIBRIUM ITERATION     2


 AVERAGE FORCE                      5.839E-03   TIME AVG. FORCE       2.985E-03
 LARGEST RESIDUAL FORCE             8.303E-08   AT NODE         46   DOF  2
   INSTANCE: PART-1-1                                                                        
 LARGEST INCREMENT OF DISP.         6.850E-06   AT NODE        188   DOF  3
   INSTANCE: PART-1-1                                                                        
 LARGEST CORRECTION TO DISP.        3.643E-09   AT NODE        644   DOF  3
   INSTANCE: PART-1-1                                                                        
          THE FORCE     EQUILIBRIUM EQUATIONS HAVE CONVERGED

 ITERATION SUMMARY FOR THE INCREMENT:   2 TOTAL ITERATIONS, OF WHICH
   0 ARE SEVERE DISCONTINUITY ITERATIONS AND  2 ARE EQUILIBRIUM ITERATIONS.

 TIME INCREMENT COMPLETED   1.00    ,  FRACTION OF STEP COMPLETED  0.100    
 STEP TIME COMPLETED        25.0    ,  TOTAL TIME COMPLETED         25.0    


  INCREMENT    26 STARTS. ATTEMPT NUMBER  1, TIME INCREMENT   1.00    
 
 START OF ITERATIVE SOLVER, NUMBER OF EQUATIONS = 2196 NUMBER OF RHS = 1
 
 ITERATIVE SOLVER CONVERGED.
 NUM. ITERATIONS =   13 RELATIVE RESIDUAL NORM =  5.654e-07 RHS NORM =  5.786e-03
 
 END OF ITERATIVE SOLVER
 ELAPSED WALLCLOCK TIME (SEC) = 0.0


               CONVERGENCE CHECKS FOR EQUILIBRIUM ITERATION     1


 AVERAGE FORCE                      6.090E-03   TIME AVG. FORCE       3.105E-03
 LARGEST RESIDUAL FORCE             4.061E-05   AT NODE         44   DOF  3
   INSTANCE: PART-1-1                                                                        
 LARGEST INCREMENT OF DISP.         7.066E-06   AT NODE        188   DOF  3
   INSTANCE: PART-1-1                                                                        
 LARGEST CORRECTION TO DISP.        2.334E-07   AT NODE        644   DOF  3
   INSTANCE: PART-1-1                                                                        
          FORCE     EQUILIBRIUM NOT ACHIEVED WITHIN TOLERANCE.
 
 START OF ITERATIVE SOLVER, NUMBER OF EQUATIONS = 2196 NUMBER OF RHS = 1
 
 ITERATIVE SOLVER CONVERGED.
 NUM. ITERATIONS =   13 RELATIVE RESIDUAL NORM =  2.259e-06 RHS NORM =  5.939e-05
 
 END OF ITERATIVE SOLVER
 ELAPSED WALLCLOCK TIME (SEC) = 0.0


               CONVERGENCE CHECKS FOR EQUILIBRIUM ITERATION     2


 AVERAGE FORCE                      6.090E-03   TIME AVG. FORCE       3.105E-03
 LARGEST RESIDUAL FORCE             6.314E-08   AT NODE         46   DOF  2
   INSTANCE: PART-1-1                                                                        
 LARGEST INCREMENT OF DISP.         7.068E-06   AT NODE        188   DOF  3
   INSTANCE: PART-1-1                                                                        
 LARGEST CORRECTION TO DISP.        2.651E-09   AT NODE        644   DOF  3
   INSTANCE: PART-1-1                                                                        
          THE FORCE     EQUILIBRIUM EQUATIONS HAVE CONVERGED

 ITERATION SUMMARY FOR THE INCREMENT:   2 TOTAL ITERATIONS, OF WHICH
   0 ARE SEVERE DISCONTINUITY ITERATIONS AND  2 ARE EQUILIBRIUM ITERATIONS.

 TIME INCREMENT COMPLETED   1.00    ,  FRACTION OF STEP COMPLETED  0.104    
 STEP TIME COMPLETED        26.0    ,  TOTAL TIME COMPLETED         26.0    


  INCREMENT    27 STARTS. ATTEMPT NUMBER  1, TIME INCREMENT   1.00    
 
 START OF ITERATIVE SOLVER, NUMBER OF EQUATIONS = 2196 NUMBER OF RHS = 1
 
 ITERATIVE SOLVER CONVERGED.
 NUM. ITERATIONS =   11 RELATIVE RESIDUAL NORM =  2.627e-05 RHS NORM =  4.978e-03
 
 END OF ITERATIVE SOLVER
 ELAPSED WALLCLOCK TIME (SEC) = 0.0


               CONVERGENCE CHECKS FOR EQUILIBRIUM ITERATION     1


 AVERAGE FORCE                      6.340E-03   TIME AVG. FORCE       3.225E-03
 LARGEST RESIDUAL FORCE             2.978E-05   AT NODE         44   DOF  3
   INSTANCE: PART-1-1                                                                        
 LARGEST INCREMENT OF DISP.         7.259E-06   AT NODE        641   DOF  3
   INSTANCE: PART-1-1                                                                        
 LARGEST CORRECTION TO DISP.        2.020E-07   AT NODE        287   DOF  3
   INSTANCE: PART-1-1                                                                        
          FORCE     EQUILIBRIUM NOT ACHIEVED WITHIN TOLERANCE.
 
 START OF ITERATIVE SOLVER, NUMBER OF EQUATIONS = 2196 NUMBER OF RHS = 1
 
 ITERATIVE SOLVER CONVERGED.
 NUM. ITERATIONS =   13 RELATIVE RESIDUAL NORM =  3.292e-05 RHS NORM =  4.494e-05
 
 END OF ITERATIVE SOLVER
 ELAPSED WALLCLOCK TIME (SEC) = 0.0


               CONVERGENCE CHECKS FOR EQUILIBRIUM ITERATION     2


 AVERAGE FORCE                      6.340E-03   TIME AVG. FORCE       3.225E-03
 LARGEST RESIDUAL FORCE             5.037E-08   AT NODE         46   DOF  2
   INSTANCE: PART-1-1                                                                        
 LARGEST INCREMENT OF DISP.         7.261E-06   AT NODE        641   DOF  3
   INSTANCE: PART-1-1                                                                        
 LARGEST CORRECTION TO DISP.        1.975E-09   AT NODE        287   DOF  3
   INSTANCE: PART-1-1                                                                        
          THE FORCE     EQUILIBRIUM EQUATIONS HAVE CONVERGED

 ITERATION SUMMARY FOR THE INCREMENT:   2 TOTAL ITERATIONS, OF WHICH
   0 ARE SEVERE DISCONTINUITY ITERATIONS AND  2 ARE EQUILIBRIUM ITERATIONS.

 TIME INCREMENT COMPLETED   1.00    ,  FRACTION OF STEP COMPLETED  0.108    
 STEP TIME COMPLETED        27.0    ,  TOTAL TIME COMPLETED         27.0    


  INCREMENT    28 STARTS. ATTEMPT NUMBER  1, TIME INCREMENT   1.00    
 
 START OF ITERATIVE SOLVER, NUMBER OF EQUATIONS = 2196 NUMBER OF RHS = 1
 
 ITERATIVE SOLVER CONVERGED.
 NUM. ITERATIONS =   11 RELATIVE RESIDUAL NORM =  3.981e-05 RHS NORM =  4.332e-03
 
 END OF ITERATIVE SOLVER
 ELAPSED WALLCLOCK TIME (SEC) = 0.0


               CONVERGENCE CHECKS FOR EQUILIBRIUM ITERATION     1


 AVERAGE FORCE                      6.591E-03   TIME AVG. FORCE       3.345E-03
 LARGEST RESIDUAL FORCE             2.197E-05   AT NODE         44   DOF  3
   INSTANCE: PART-1-1                                                                        
 LARGEST INCREMENT OF DISP.         7.426E-06   AT NODE        641   DOF  3
   INSTANCE: PART-1-1                                                                        
 LARGEST CORRECTION TO DISP.        1.745E-07   AT NODE        287   DOF  3
   INSTANCE: PART-1-1                                                                        
          FORCE     EQUILIBRIUM NOT ACHIEVED WITHIN TOLERANCE.
 
 START OF ITERATIVE SOLVER, NUMBER OF EQUATIONS = 2196 NUMBER OF RHS = 1
 
 ITERATIVE SOLVER CONVERGED.
 NUM. ITERATIONS =   13 RELATIVE RESIDUAL NORM =  2.573e-06 RHS NORM =  3.438e-05
 
 END OF ITERATIVE SOLVER
 ELAPSED WALLCLOCK TIME (SEC) = 0.0


               CONVERGENCE CHECKS FOR EQUILIBRIUM ITERATION     2


 AVERAGE FORCE                      6.591E-03   TIME AVG. FORCE       3.345E-03
 LARGEST RESIDUAL FORCE             3.849E-08   AT NODE         46   DOF  2
   INSTANCE: PART-1-1                                                                        
 LARGEST INCREMENT OF DISP.         7.427E-06   AT NODE        641   DOF  3
   INSTANCE: PART-1-1                                                                        
 LARGEST CORRECTION TO DISP.        1.495E-09   AT NODE        287   DOF  3
   INSTANCE: PART-1-1                                                                        
          THE FORCE     EQUILIBRIUM EQUATIONS HAVE CONVERGED

 ITERATION SUMMARY FOR THE INCREMENT:   2 TOTAL ITERATIONS, OF WHICH
   0 ARE SEVERE DISCONTINUITY ITERATIONS AND  2 ARE EQUILIBRIUM ITERATIONS.

 TIME INCREMENT COMPLETED   1.00    ,  FRACTION OF STEP COMPLETED  0.112    
 STEP TIME COMPLETED        28.0    ,  TOTAL TIME COMPLETED         28.0    


  INCREMENT    29 STARTS. ATTEMPT NUMBER  1, TIME INCREMENT   1.00    
 
 START OF ITERATIVE SOLVER, NUMBER OF EQUATIONS = 2196 NUMBER OF RHS = 1
 
 ITERATIVE SOLVER CONVERGED.
 NUM. ITERATIONS =   12 RELATIVE RESIDUAL NORM =  2.059e-05 RHS NORM =  3.842e-03
 
 END OF ITERATIVE SOLVER
 ELAPSED WALLCLOCK TIME (SEC) = 0.0


               CONVERGENCE CHECKS FOR EQUILIBRIUM ITERATION     1


 AVERAGE FORCE                      6.837E-03   TIME AVG. FORCE       3.465E-03
 LARGEST RESIDUAL FORCE             1.654E-05   AT NODE         46   DOF  2
   INSTANCE: PART-1-1                                                                        
 LARGEST INCREMENT OF DISP.         7.572E-06   AT NODE        188   DOF  3
   INSTANCE: PART-1-1                                                                        
 LARGEST CORRECTION TO DISP.        1.518E-07   AT NODE        642   DOF  3
   INSTANCE: PART-1-1                                                                        
 ESTIMATE OF DISP.    CORRECTION    9.451E-10
 FORCE     EQUILIB. ACCEPTED BASED ON SMALL RESIDUAL AND ESTIMATED CORRECTION

 ITERATION SUMMARY FOR THE INCREMENT:   1 TOTAL ITERATIONS, OF WHICH
   0 ARE SEVERE DISCONTINUITY ITERATIONS AND  1 ARE EQUILIBRIUM ITERATIONS.

 TIME INCREMENT COMPLETED   1.00    ,  FRACTION OF STEP COMPLETED  0.116    
 STEP TIME COMPLETED        29.0    ,  TOTAL TIME COMPLETED         29.0    


  INCREMENT    30 STARTS. ATTEMPT NUMBER  1, TIME INCREMENT   1.00    
 
 START OF ITERATIVE SOLVER, NUMBER OF EQUATIONS = 2196 NUMBER OF RHS = 1
 
 ITERATIVE SOLVER CONVERGED.
 NUM. ITERATIONS =   12 RELATIVE RESIDUAL NORM =  9.057e-06 RHS NORM =  3.550e-03
 
 END OF ITERATIVE SOLVER
 ELAPSED WALLCLOCK TIME (SEC) = 0.0


               CONVERGENCE CHECKS FOR EQUILIBRIUM ITERATION     1


 AVERAGE FORCE                      7.088E-03   TIME AVG. FORCE       3.586E-03
 LARGEST RESIDUAL FORCE             1.439E-05   AT NODE         46   DOF  2
   INSTANCE: PART-1-1                                                                        
 LARGEST INCREMENT OF DISP.         7.709E-06   AT NODE        188   DOF  3
   INSTANCE: PART-1-1                                                                        
 LARGEST CORRECTION TO DISP.        1.377E-07   AT NODE        642   DOF  3
   INSTANCE: PART-1-1                                                                        
 ESTIMATE OF DISP.    CORRECTION    8.196E-10
 FORCE     EQUILIB. ACCEPTED BASED ON SMALL RESIDUAL AND ESTIMATED CORRECTION

 ITERATION SUMMARY FOR THE INCREMENT:   1 TOTAL ITERATIONS, OF WHICH
   0 ARE SEVERE DISCONTINUITY ITERATIONS AND  1 ARE EQUILIBRIUM ITERATIONS.

 TIME INCREMENT COMPLETED   1.00    ,  FRACTION OF STEP COMPLETED  0.120    
 STEP TIME COMPLETED        30.0    ,  TOTAL TIME COMPLETED         30.0    


  INCREMENT    31 STARTS. ATTEMPT NUMBER  1, TIME INCREMENT   1.00    
 
 START OF ITERATIVE SOLVER, NUMBER OF EQUATIONS = 2196 NUMBER OF RHS = 1
 
 ITERATIVE SOLVER CONVERGED.
 NUM. ITERATIONS =   12 RELATIVE RESIDUAL NORM =  2.749e-05 RHS NORM =  3.271e-03
 
 END OF ITERATIVE SOLVER
 ELAPSED WALLCLOCK TIME (SEC) = 0.0


               CONVERGENCE CHECKS FOR EQUILIBRIUM ITERATION     1


 AVERAGE FORCE                      7.340E-03   TIME AVG. FORCE       3.707E-03
 LARGEST RESIDUAL FORCE             1.225E-05   AT NODE         46   DOF  2
   INSTANCE: PART-1-1                                                                        
 LARGEST INCREMENT OF DISP.         7.832E-06   AT NODE        188   DOF  3
   INSTANCE: PART-1-1                                                                        
 LARGEST CORRECTION TO DISP.        1.241E-07   AT NODE          3   DOF  3
   INSTANCE: PART-1-1                                                                        
 ESTIMATE OF DISP.    CORRECTION    6.949E-10
 FORCE     EQUILIB. ACCEPTED BASED ON SMALL RESIDUAL AND ESTIMATED CORRECTION

 ITERATION SUMMARY FOR THE INCREMENT:   1 TOTAL ITERATIONS, OF WHICH
   0 ARE SEVERE DISCONTINUITY ITERATIONS AND  1 ARE EQUILIBRIUM ITERATIONS.

 TIME INCREMENT COMPLETED   1.00    ,  FRACTION OF STEP COMPLETED  0.124    
 STEP TIME COMPLETED        31.0    ,  TOTAL TIME COMPLETED         31.0    


  INCREMENT    32 STARTS. ATTEMPT NUMBER  1, TIME INCREMENT   1.00    
 
 START OF ITERATIVE SOLVER, NUMBER OF EQUATIONS = 2196 NUMBER OF RHS = 1
 
 ITERATIVE SOLVER CONVERGED.
 NUM. ITERATIONS =   13 RELATIVE RESIDUAL NORM =  2.419e-05 RHS NORM =  3.041e-03
 
 END OF ITERATIVE SOLVER
 ELAPSED WALLCLOCK TIME (SEC) = 0.0


               CONVERGENCE CHECKS FOR EQUILIBRIUM ITERATION     1


 AVERAGE FORCE                      7.585E-03   TIME AVG. FORCE       3.828E-03
 LARGEST RESIDUAL FORCE             1.031E-05   AT NODE         46   DOF  2
   INSTANCE: PART-1-1                                                                        
 LARGEST INCREMENT OF DISP.         7.943E-06   AT NODE        188   DOF  3
   INSTANCE: PART-1-1                                                                        
 LARGEST CORRECTION TO DISP.        1.120E-07   AT NODE          3   DOF  3
   INSTANCE: PART-1-1                                                                        
 ESTIMATE OF DISP.    CORRECTION    5.747E-10
 FORCE     EQUILIB. ACCEPTED BASED ON SMALL RESIDUAL AND ESTIMATED CORRECTION

 ITERATION SUMMARY FOR THE INCREMENT:   1 TOTAL ITERATIONS, OF WHICH
   0 ARE SEVERE DISCONTINUITY ITERATIONS AND  1 ARE EQUILIBRIUM ITERATIONS.

 TIME INCREMENT COMPLETED   1.00    ,  FRACTION OF STEP COMPLETED  0.128    
 STEP TIME COMPLETED        32.0    ,  TOTAL TIME COMPLETED         32.0    


  INCREMENT    33 STARTS. ATTEMPT NUMBER  1, TIME INCREMENT   1.00    
 
 START OF ITERATIVE SOLVER, NUMBER OF EQUATIONS = 2196 NUMBER OF RHS = 1
 
 ITERATIVE SOLVER CONVERGED.
 NUM. ITERATIONS =   14 RELATIVE RESIDUAL NORM =  1.912e-06 RHS NORM =  2.799e-03
 
 END OF ITERATIVE SOLVER
 ELAPSED WALLCLOCK TIME (SEC) = 0.0


               CONVERGENCE CHECKS FOR EQUILIBRIUM ITERATION     1


 AVERAGE FORCE                      7.829E-03   TIME AVG. FORCE       3.949E-03
 LARGEST RESIDUAL FORCE             8.543E-06   AT NODE         46   DOF  2
   INSTANCE: PART-1-1                                                                        
 LARGEST INCREMENT OF DISP.         8.043E-06   AT NODE        188   DOF  3
   INSTANCE: PART-1-1                                                                        
 LARGEST CORRECTION TO DISP.        1.004E-07   AT NODE        320   DOF  3
   INSTANCE: PART-1-1                                                                        
 ESTIMATE OF DISP.    CORRECTION    4.669E-10
 FORCE     EQUILIB. ACCEPTED BASED ON SMALL RESIDUAL AND ESTIMATED CORRECTION

 ITERATION SUMMARY FOR THE INCREMENT:   1 TOTAL ITERATIONS, OF WHICH
   0 ARE SEVERE DISCONTINUITY ITERATIONS AND  1 ARE EQUILIBRIUM ITERATIONS.

 TIME INCREMENT COMPLETED   1.00    ,  FRACTION OF STEP COMPLETED  0.132    
 STEP TIME COMPLETED        33.0    ,  TOTAL TIME COMPLETED         33.0    


  INCREMENT    34 STARTS. ATTEMPT NUMBER  1, TIME INCREMENT   1.00    
 
 START OF ITERATIVE SOLVER, NUMBER OF EQUATIONS = 2196 NUMBER OF RHS = 1
 
 ITERATIVE SOLVER CONVERGED.
 NUM. ITERATIONS =   14 RELATIVE RESIDUAL NORM =  4.889e-06 RHS NORM =  2.536e-03
 
 END OF ITERATIVE SOLVER
 ELAPSED WALLCLOCK TIME (SEC) = 0.0


               CONVERGENCE CHECKS FOR EQUILIBRIUM ITERATION     1


 AVERAGE FORCE                      8.074E-03   TIME AVG. FORCE       4.071E-03
 LARGEST RESIDUAL FORCE             6.924E-06   AT NODE         46   DOF  2
   INSTANCE: PART-1-1                                                                        
 LARGEST INCREMENT OF DISP.         8.134E-06   AT NODE        188   DOF  3
   INSTANCE: PART-1-1                                                                        
 LARGEST CORRECTION TO DISP.        9.140E-08   AT NODE        187   DOF  3
   INSTANCE: PART-1-1                                                                        
 ESTIMATE OF DISP.    CORRECTION    3.821E-10
 FORCE     EQUILIB. ACCEPTED BASED ON SMALL RESIDUAL AND ESTIMATED CORRECTION

 ITERATION SUMMARY FOR THE INCREMENT:   1 TOTAL ITERATIONS, OF WHICH
   0 ARE SEVERE DISCONTINUITY ITERATIONS AND  1 ARE EQUILIBRIUM ITERATIONS.

 TIME INCREMENT COMPLETED   1.00    ,  FRACTION OF STEP COMPLETED  0.136    
 STEP TIME COMPLETED        34.0    ,  TOTAL TIME COMPLETED         34.0    


  INCREMENT    35 STARTS. ATTEMPT NUMBER  1, TIME INCREMENT   1.00    
 
 START OF ITERATIVE SOLVER, NUMBER OF EQUATIONS = 2196 NUMBER OF RHS = 1
 
 ITERATIVE SOLVER CONVERGED.
 NUM. ITERATIONS =   14 RELATIVE RESIDUAL NORM =  4.583e-06 RHS NORM =  2.274e-03
 
 END OF ITERATIVE SOLVER
 ELAPSED WALLCLOCK TIME (SEC) = 0.0


               CONVERGENCE CHECKS FOR EQUILIBRIUM ITERATION     1


 AVERAGE FORCE                      8.319E-03   TIME AVG. FORCE       4.192E-03
 LARGEST RESIDUAL FORCE             5.694E-06   AT NODE         64   DOF  1
   INSTANCE: PART-1-1                                                                        
 LARGEST INCREMENT OF DISP.         8.218E-06   AT NODE        188   DOF  3
   INSTANCE: PART-1-1                                                                        
 LARGEST CORRECTION TO DISP.        8.478E-08   AT NODE        187   DOF  3
   INSTANCE: PART-1-1                                                                        
 ESTIMATE OF DISP.    CORRECTION    3.248E-10
 FORCE     EQUILIB. ACCEPTED BASED ON SMALL RESIDUAL AND ESTIMATED CORRECTION

 ITERATION SUMMARY FOR THE INCREMENT:   1 TOTAL ITERATIONS, OF WHICH
   0 ARE SEVERE DISCONTINUITY ITERATIONS AND  1 ARE EQUILIBRIUM ITERATIONS.

 TIME INCREMENT COMPLETED   1.00    ,  FRACTION OF STEP COMPLETED  0.140    
 STEP TIME COMPLETED        35.0    ,  TOTAL TIME COMPLETED         35.0    


  INCREMENT    36 STARTS. ATTEMPT NUMBER  1, TIME INCREMENT   1.00    
 
 START OF ITERATIVE SOLVER, NUMBER OF EQUATIONS = 2196 NUMBER OF RHS = 1
 
 ITERATIVE SOLVER CONVERGED.
 NUM. ITERATIONS =   14 RELATIVE RESIDUAL NORM =  2.708e-06 RHS NORM =  2.037e-03
 
 END OF ITERATIVE SOLVER
 ELAPSED WALLCLOCK TIME (SEC) = 0.0


               CONVERGENCE CHECKS FOR EQUILIBRIUM ITERATION     1


 AVERAGE FORCE                      8.567E-03   TIME AVG. FORCE       4.314E-03
 LARGEST RESIDUAL FORCE             5.205E-06   AT NODE         64   DOF  1
   INSTANCE: PART-1-1                                                                        
 LARGEST INCREMENT OF DISP.         8.297E-06   AT NODE        188   DOF  3
   INSTANCE: PART-1-1                                                                        
 LARGEST CORRECTION TO DISP.        7.900E-08   AT NODE        188   DOF  3
   INSTANCE: PART-1-1                                                                        
          THE FORCE     EQUILIBRIUM EQUATIONS HAVE CONVERGED

 ITERATION SUMMARY FOR THE INCREMENT:   1 TOTAL ITERATIONS, OF WHICH
   0 ARE SEVERE DISCONTINUITY ITERATIONS AND  1 ARE EQUILIBRIUM ITERATIONS.

 TIME INCREMENT COMPLETED   1.00    ,  FRACTION OF STEP COMPLETED  0.144    
 STEP TIME COMPLETED        36.0    ,  TOTAL TIME COMPLETED         36.0    


  INCREMENT    37 STARTS. ATTEMPT NUMBER  1, TIME INCREMENT   1.00    
 
 START OF ITERATIVE SOLVER, NUMBER OF EQUATIONS = 2196 NUMBER OF RHS = 1
 
 ITERATIVE SOLVER CONVERGED.
 NUM. ITERATIONS =   14 RELATIVE RESIDUAL NORM =  3.382e-06 RHS NORM =  1.830e-03
 
 END OF ITERATIVE SOLVER
 ELAPSED WALLCLOCK TIME (SEC) = 0.0


               CONVERGENCE CHECKS FOR EQUILIBRIUM ITERATION     1


 AVERAGE FORCE                      8.808E-03   TIME AVG. FORCE       4.435E-03
 LARGEST RESIDUAL FORCE             4.709E-06   AT NODE         64   DOF  1
   INSTANCE: PART-1-1                                                                        
 LARGEST INCREMENT OF DISP.         8.371E-06   AT NODE        188   DOF  3
   INSTANCE: PART-1-1                                                                        
 LARGEST CORRECTION TO DISP.        7.413E-08   AT NODE        188   DOF  3
   INSTANCE: PART-1-1                                                                        
          THE FORCE     EQUILIBRIUM EQUATIONS HAVE CONVERGED

 ITERATION SUMMARY FOR THE INCREMENT:   1 TOTAL ITERATIONS, OF WHICH
   0 ARE SEVERE DISCONTINUITY ITERATIONS AND  1 ARE EQUILIBRIUM ITERATIONS.

 TIME INCREMENT COMPLETED   1.00    ,  FRACTION OF STEP COMPLETED  0.148    
 STEP TIME COMPLETED        37.0    ,  TOTAL TIME COMPLETED         37.0    


  INCREMENT    38 STARTS. ATTEMPT NUMBER  1, TIME INCREMENT   1.00    
 
 START OF ITERATIVE SOLVER, NUMBER OF EQUATIONS = 2196 NUMBER OF RHS = 1
 
 ITERATIVE SOLVER CONVERGED.
 NUM. ITERATIONS =   14 RELATIVE RESIDUAL NORM =  9.618e-06 RHS NORM =  1.647e-03
 
 END OF ITERATIVE SOLVER
 ELAPSED WALLCLOCK TIME (SEC) = 0.0


               CONVERGENCE CHECKS FOR EQUILIBRIUM ITERATION     1


 AVERAGE FORCE                      9.057E-03   TIME AVG. FORCE       4.557E-03
 LARGEST RESIDUAL FORCE             4.261E-06   AT NODE         64   DOF  1
   INSTANCE: PART-1-1                                                                        
 LARGEST INCREMENT OF DISP.         8.441E-06   AT NODE        188   DOF  3
   INSTANCE: PART-1-1                                                                        
 LARGEST CORRECTION TO DISP.        6.943E-08   AT NODE        188   DOF  3
   INSTANCE: PART-1-1                                                                        
          THE FORCE     EQUILIBRIUM EQUATIONS HAVE CONVERGED

 ITERATION SUMMARY FOR THE INCREMENT:   1 TOTAL ITERATIONS, OF WHICH
   0 ARE SEVERE DISCONTINUITY ITERATIONS AND  1 ARE EQUILIBRIUM ITERATIONS.

 TIME INCREMENT COMPLETED   1.00    ,  FRACTION OF STEP COMPLETED  0.152    
 STEP TIME COMPLETED        38.0    ,  TOTAL TIME COMPLETED         38.0    


  INCREMENT    39 STARTS. ATTEMPT NUMBER  1, TIME INCREMENT   1.00    
 
 START OF ITERATIVE SOLVER, NUMBER OF EQUATIONS = 2196 NUMBER OF RHS = 1
 
 ITERATIVE SOLVER CONVERGED.
 NUM. ITERATIONS =   12 RELATIVE RESIDUAL NORM =  9.855e-06 RHS NORM =  1.493e-03
 
 END OF ITERATIVE SOLVER
 ELAPSED WALLCLOCK TIME (SEC) = 0.0


               CONVERGENCE CHECKS FOR EQUILIBRIUM ITERATION     1


 AVERAGE FORCE                      9.304E-03   TIME AVG. FORCE       4.679E-03
 LARGEST RESIDUAL FORCE             3.928E-06   AT NODE         64   DOF  1
   INSTANCE: PART-1-1                                                                        
 LARGEST INCREMENT OF DISP.         8.506E-06   AT NODE        188   DOF  3
   INSTANCE: PART-1-1                                                                        
 LARGEST CORRECTION TO DISP.        6.544E-08   AT NODE          7   DOF  3
   INSTANCE: PART-1-1                                                                        
          THE FORCE     EQUILIBRIUM EQUATIONS HAVE CONVERGED

 ITERATION SUMMARY FOR THE INCREMENT:   1 TOTAL ITERATIONS, OF WHICH
   0 ARE SEVERE DISCONTINUITY ITERATIONS AND  1 ARE EQUILIBRIUM ITERATIONS.

 TIME INCREMENT COMPLETED   1.00    ,  FRACTION OF STEP COMPLETED  0.156    
 STEP TIME COMPLETED        39.0    ,  TOTAL TIME COMPLETED         39.0    


  INCREMENT    40 STARTS. ATTEMPT NUMBER  1, TIME INCREMENT   1.00    
 
 START OF ITERATIVE SOLVER, NUMBER OF EQUATIONS = 2196 NUMBER OF RHS = 1
 
 ITERATIVE SOLVER CONVERGED.
 NUM. ITERATIONS =   14 RELATIVE RESIDUAL NORM =  4.950e-06 RHS NORM =  1.374e-03
 
 END OF ITERATIVE SOLVER
 ELAPSED WALLCLOCK TIME (SEC) = 0.0


               CONVERGENCE CHECKS FOR EQUILIBRIUM ITERATION     1


 AVERAGE FORCE                      9.550E-03   TIME AVG. FORCE       4.800E-03
 LARGEST RESIDUAL FORCE             3.693E-06   AT NODE         64   DOF  1
   INSTANCE: PART-1-1                                                                        
 LARGEST INCREMENT OF DISP.         8.567E-06   AT NODE        188   DOF  3
   INSTANCE: PART-1-1                                                                        
 LARGEST CORRECTION TO DISP.        6.234E-08   AT NODE          7   DOF  3
   INSTANCE: PART-1-1                                                                        
          THE FORCE     EQUILIBRIUM EQUATIONS HAVE CONVERGED

 ITERATION SUMMARY FOR THE INCREMENT:   1 TOTAL ITERATIONS, OF WHICH
   0 ARE SEVERE DISCONTINUITY ITERATIONS AND  1 ARE EQUILIBRIUM ITERATIONS.

 TIME INCREMENT COMPLETED   1.00    ,  FRACTION OF STEP COMPLETED  0.160    
 STEP TIME COMPLETED        40.0    ,  TOTAL TIME COMPLETED         40.0    


  INCREMENT    41 STARTS. ATTEMPT NUMBER  1, TIME INCREMENT   1.00    
 
 START OF ITERATIVE SOLVER, NUMBER OF EQUATIONS = 2196 NUMBER OF RHS = 1
 
 ITERATIVE SOLVER CONVERGED.
 NUM. ITERATIONS =   13 RELATIVE RESIDUAL NORM =  3.642e-06 RHS NORM =  1.282e-03
 
 END OF ITERATIVE SOLVER
 ELAPSED WALLCLOCK TIME (SEC) = 0.0


               CONVERGENCE CHECKS FOR EQUILIBRIUM ITERATION     1


 AVERAGE FORCE                      9.794E-03   TIME AVG. FORCE       4.922E-03
 LARGEST RESIDUAL FORCE             3.515E-06   AT NODE         64   DOF  1
   INSTANCE: PART-1-1                                                                        
 LARGEST INCREMENT OF DISP.         8.626E-06   AT NODE        188   DOF  3
   INSTANCE: PART-1-1                                                                        
 LARGEST CORRECTION TO DISP.        5.931E-08   AT NODE          7   DOF  3
   INSTANCE: PART-1-1                                                                        
          THE FORCE     EQUILIBRIUM EQUATIONS HAVE CONVERGED

 ITERATION SUMMARY FOR THE INCREMENT:   1 TOTAL ITERATIONS, OF WHICH
   0 ARE SEVERE DISCONTINUITY ITERATIONS AND  1 ARE EQUILIBRIUM ITERATIONS.

 TIME INCREMENT COMPLETED   1.00    ,  FRACTION OF STEP COMPLETED  0.164    
 STEP TIME COMPLETED        41.0    ,  TOTAL TIME COMPLETED         41.0    


  INCREMENT    42 STARTS. ATTEMPT NUMBER  1, TIME INCREMENT   1.00    
 
 START OF ITERATIVE SOLVER, NUMBER OF EQUATIONS = 2196 NUMBER OF RHS = 1
 
 ITERATIVE SOLVER CONVERGED.
 NUM. ITERATIONS =   14 RELATIVE RESIDUAL NORM =  1.628e-06 RHS NORM =  1.207e-03
 
 END OF ITERATIVE SOLVER
 ELAPSED WALLCLOCK TIME (SEC) = 0.0


               CONVERGENCE CHECKS FOR EQUILIBRIUM ITERATION     1


 AVERAGE FORCE                      1.004E-02   TIME AVG. FORCE       5.044E-03
 LARGEST RESIDUAL FORCE             3.365E-06   AT NODE         64   DOF  1
   INSTANCE: PART-1-1                                                                        
 LARGEST INCREMENT OF DISP.         8.683E-06   AT NODE        188   DOF  3
   INSTANCE: PART-1-1                                                                        
 LARGEST CORRECTION TO DISP.        5.688E-08   AT NODE        643   DOF  3
   INSTANCE: PART-1-1                                                                        
          THE FORCE     EQUILIBRIUM EQUATIONS HAVE CONVERGED

 ITERATION SUMMARY FOR THE INCREMENT:   1 TOTAL ITERATIONS, OF WHICH
   0 ARE SEVERE DISCONTINUITY ITERATIONS AND  1 ARE EQUILIBRIUM ITERATIONS.

 TIME INCREMENT COMPLETED   1.00    ,  FRACTION OF STEP COMPLETED  0.168    
 STEP TIME COMPLETED        42.0    ,  TOTAL TIME COMPLETED         42.0    


  INCREMENT    43 STARTS. ATTEMPT NUMBER  1, TIME INCREMENT   1.00    
 
 START OF ITERATIVE SOLVER, NUMBER OF EQUATIONS = 2196 NUMBER OF RHS = 1
 
 ITERATIVE SOLVER CONVERGED.
 NUM. ITERATIONS =   12 RELATIVE RESIDUAL NORM =  4.448e-06 RHS NORM =  1.140e-03
 
 END OF ITERATIVE SOLVER
 ELAPSED WALLCLOCK TIME (SEC) = 0.0


               CONVERGENCE CHECKS FOR EQUILIBRIUM ITERATION     1


 AVERAGE FORCE                      1.028E-02   TIME AVG. FORCE       5.166E-03
 LARGEST RESIDUAL FORCE             3.221E-06   AT NODE         64   DOF  1
   INSTANCE: PART-1-1                                                                        
 LARGEST INCREMENT OF DISP.         8.738E-06   AT NODE        188   DOF  3
   INSTANCE: PART-1-1                                                                        
 LARGEST CORRECTION TO DISP.        5.498E-08   AT NODE        643   DOF  3
   INSTANCE: PART-1-1                                                                        
          THE FORCE     EQUILIBRIUM EQUATIONS HAVE CONVERGED

 ITERATION SUMMARY FOR THE INCREMENT:   1 TOTAL ITERATIONS, OF WHICH
   0 ARE SEVERE DISCONTINUITY ITERATIONS AND  1 ARE EQUILIBRIUM ITERATIONS.

 TIME INCREMENT COMPLETED   1.00    ,  FRACTION OF STEP COMPLETED  0.172    
 STEP TIME COMPLETED        43.0    ,  TOTAL TIME COMPLETED         43.0    


  INCREMENT    44 STARTS. ATTEMPT NUMBER  1, TIME INCREMENT   1.00    
 
 START OF ITERATIVE SOLVER, NUMBER OF EQUATIONS = 2196 NUMBER OF RHS = 1
 
 ITERATIVE SOLVER CONVERGED.
 NUM. ITERATIONS =   15 RELATIVE RESIDUAL NORM =  5.919e-07 RHS NORM =  1.078e-03
 
 END OF ITERATIVE SOLVER
 ELAPSED WALLCLOCK TIME (SEC) = 0.0


               CONVERGENCE CHECKS FOR EQUILIBRIUM ITERATION     1


[...]
          FORCE     EQUILIBRIUM NOT ACHIEVED WITHIN TOLERANCE.
 
 START OF ITERATIVE SOLVER, NUMBER OF EQUATIONS = 2196 NUMBER OF RHS = 1
 
 ITERATIVE SOLVER CONVERGED.
 NUM. ITERATIONS =   30 RELATIVE RESIDUAL NORM =  2.045e-05 RHS NORM =  6.595e-03
 
 END OF ITERATIVE SOLVER
 ELAPSED WALLCLOCK TIME (SEC) = 0.1


               CONVERGENCE CHECKS FOR EQUILIBRIUM ITERATION     2


 AVERAGE FORCE                      6.393E-02   TIME AVG. FORCE       3.066E-02
 LARGEST RESIDUAL FORCE             2.691E-04   AT NODE         44   DOF  3
   INSTANCE: PART-1-1                                                                        
 LARGEST INCREMENT OF DISP.         3.105E-04   AT NODE         68   DOF  3
   INSTANCE: PART-1-1                                                                        
 LARGEST CORRECTION TO DISP.        4.703E-07   AT NODE        286   DOF  3
   INSTANCE: PART-1-1                                                                        
          FORCE     EQUILIBRIUM NOT ACHIEVED WITHIN TOLERANCE.
 
 START OF ITERATIVE SOLVER, NUMBER OF EQUATIONS = 2196 NUMBER OF RHS = 1
 
 ITERATIVE SOLVER CONVERGED.
 NUM. ITERATIONS =   29 RELATIVE RESIDUAL NORM =  1.492e-05 RHS NORM =  3.937e-04
 
 END OF ITERATIVE SOLVER
 ELAPSED WALLCLOCK TIME (SEC) = 0.1


               CONVERGENCE CHECKS FOR EQUILIBRIUM ITERATION     3


 AVERAGE FORCE                      6.393E-02   TIME AVG. FORCE       3.066E-02
 LARGEST RESIDUAL FORCE             1.533E-04   AT NODE         46   DOF  2
   INSTANCE: PART-1-1                                                                        
 LARGEST INCREMENT OF DISP.         3.108E-04   AT NODE         68   DOF  3
   INSTANCE: PART-1-1                                                                        
 LARGEST CORRECTION TO DISP.        2.967E-07   AT NODE         68   DOF  3
   INSTANCE: PART-1-1                                                                        
          FORCE     EQUILIBRIUM NOT ACHIEVED WITHIN TOLERANCE.
 
 START OF ITERATIVE SOLVER, NUMBER OF EQUATIONS = 2196 NUMBER OF RHS = 1
 
 ITERATIVE SOLVER CONVERGED.
 NUM. ITERATIONS =   33 RELATIVE RESIDUAL NORM =  2.540e-05 RHS NORM =  2.167e-04
 
 END OF ITERATIVE SOLVER
 ELAPSED WALLCLOCK TIME (SEC) = 0.1


               CONVERGENCE CHECKS FOR EQUILIBRIUM ITERATION     4


 AVERAGE FORCE                      6.393E-02   TIME AVG. FORCE       3.066E-02
 LARGEST RESIDUAL FORCE             9.860E-06   AT NODE         44   DOF  3
   INSTANCE: PART-1-1                                                                        
 LARGEST INCREMENT OF DISP.         3.108E-04   AT NODE         68   DOF  3
   INSTANCE: PART-1-1                                                                        
 LARGEST CORRECTION TO DISP.        1.683E-08   AT NODE        286   DOF  3
   INSTANCE: PART-1-1                                                                        
          THE FORCE     EQUILIBRIUM EQUATIONS HAVE CONVERGED

 ITERATION SUMMARY FOR THE INCREMENT:   4 TOTAL ITERATIONS, OF WHICH
   0 ARE SEVERE DISCONTINUITY ITERATIONS AND  4 ARE EQUILIBRIUM ITERATIONS.

 TIME INCREMENT COMPLETED   1.00    ,  FRACTION OF STEP COMPLETED  0.987    
 STEP TIME COMPLETED        247.    ,  TOTAL TIME COMPLETED         247.    


  INCREMENT   250 STARTS. ATTEMPT NUMBER  1, TIME INCREMENT   1.00    
 
 START OF ITERATIVE SOLVER, NUMBER OF EQUATIONS = 2196 NUMBER OF RHS = 1
 
 ITERATIVE SOLVER CONVERGED.
 NUM. ITERATIONS =   27 RELATIVE RESIDUAL NORM =  3.046e-06 RHS NORM =  3.580e-02
 
 END OF ITERATIVE SOLVER
 ELAPSED WALLCLOCK TIME (SEC) = 0.1


               CONVERGENCE CHECKS FOR EQUILIBRIUM ITERATION     1


 AVERAGE FORCE                      6.428E-02   TIME AVG. FORCE       3.079E-02
 LARGEST RESIDUAL FORCE             4.731E-03   AT NODE         46   DOF  2
   INSTANCE: PART-1-1                                                                        
 LARGEST INCREMENT OF DISP.         3.196E-04   AT NODE         68   DOF  3
   INSTANCE: PART-1-1                                                                        
 LARGEST CORRECTION TO DISP.        8.824E-06   AT NODE         68   DOF  3
   INSTANCE: PART-1-1                                                                        
          FORCE     EQUILIBRIUM NOT ACHIEVED WITHIN TOLERANCE.
 
 START OF ITERATIVE SOLVER, NUMBER OF EQUATIONS = 2196 NUMBER OF RHS = 1
 
 ITERATIVE SOLVER CONVERGED.
 NUM. ITERATIONS =   31 RELATIVE RESIDUAL NORM =  2.484e-05 RHS NORM =  6.761e-03
 
 END OF ITERATIVE SOLVER
 ELAPSED WALLCLOCK TIME (SEC) = 0.1

 

 ***NOTE: USER SUBROUTINE REQUESTS A TIME INCREMENT CHANGE.


  INCREMENT   250 STARTS. ATTEMPT NUMBER  2, TIME INCREMENT  0.500    
 
 START OF ITERATIVE SOLVER, NUMBER OF EQUATIONS = 2196 NUMBER OF RHS = 1
 
 ITERATIVE SOLVER CONVERGED.
 NUM. ITERATIONS =   24 RELATIVE RESIDUAL NORM =  5.340e-06 RHS NORM =  3.167e-02
 
 END OF ITERATIVE SOLVER
 ELAPSED WALLCLOCK TIME (SEC) = 0.1


               CONVERGENCE CHECKS FOR EQUILIBRIUM ITERATION     1


 AVERAGE FORCE                      6.414E-02   TIME AVG. FORCE       3.079E-02
 LARGEST RESIDUAL FORCE            -2.161E-03   AT NODE         46   DOF  2
   INSTANCE: PART-1-1                                                                        
 LARGEST INCREMENT OF DISP.         1.499E-04   AT NODE         68   DOF  3
   INSTANCE: PART-1-1                                                                        
 LARGEST CORRECTION TO DISP.       -5.562E-06   AT NODE        365   DOF  3
   INSTANCE: PART-1-1                                                                        
          FORCE     EQUILIBRIUM NOT ACHIEVED WITHIN TOLERANCE.
 
 START OF ITERATIVE SOLVER, NUMBER OF EQUATIONS = 2196 NUMBER OF RHS = 1
 
 ITERATIVE SOLVER CONVERGED.
 NUM. ITERATIONS =   26 RELATIVE RESIDUAL NORM =  1.919e-05 RHS NORM =  3.166e-03
 
 END OF ITERATIVE SOLVER
 ELAPSED WALLCLOCK TIME (SEC) = 0.1


               CONVERGENCE CHECKS FOR EQUILIBRIUM ITERATION     2


 AVERAGE FORCE                      6.414E-02   TIME AVG. FORCE       3.079E-02
 LARGEST RESIDUAL FORCE            -7.804E-05   AT NODE         44   DOF  3
   INSTANCE: PART-1-1                                                                        
 LARGEST INCREMENT OF DISP.         1.498E-04   AT NODE         68   DOF  3
   INSTANCE: PART-1-1                                                                        
 LARGEST CORRECTION TO DISP.       -1.078E-07   AT NODE        286   DOF  3
   INSTANCE: PART-1-1                                                                        
          THE FORCE     EQUILIBRIUM EQUATIONS HAVE CONVERGED
          TIME INCREMENT MAY NOW INCREASE TO    0.550    

 ITERATION SUMMARY FOR THE INCREMENT:   2 TOTAL ITERATIONS, OF WHICH
   0 ARE SEVERE DISCONTINUITY ITERATIONS AND  2 ARE EQUILIBRIUM ITERATIONS.

 TIME INCREMENT COMPLETED  0.500    ,  FRACTION OF STEP COMPLETED  0.989    
 STEP TIME COMPLETED        247.    ,  TOTAL TIME COMPLETED         247.    


  INCREMENT   251 STARTS. ATTEMPT NUMBER  1, TIME INCREMENT  0.550    
 
 START OF ITERATIVE SOLVER, NUMBER OF EQUATIONS = 2196 NUMBER OF RHS = 1
 
 ITERATIVE SOLVER CONVERGED.
 NUM. ITERATIONS =   21 RELATIVE RESIDUAL NORM =  3.841e-06 RHS NORM =  5.921e-02
 
 END OF ITERATIVE SOLVER
 ELAPSED WALLCLOCK TIME (SEC) = 0.1


               CONVERGENCE CHECKS FOR EQUILIBRIUM ITERATION     1


 AVERAGE FORCE                      6.434E-02   TIME AVG. FORCE       3.092E-02
 LARGEST RESIDUAL FORCE             2.461E-03   AT NODE         46   DOF  2
   INSTANCE: PART-1-1                                                                        
 LARGEST INCREMENT OF DISP.         1.703E-04   AT NODE         68   DOF  3
   INSTANCE: PART-1-1                                                                        
 LARGEST CORRECTION TO DISP.        5.478E-06   AT NODE         68   DOF  3
   INSTANCE: PART-1-1                                                                        
          FORCE     EQUILIBRIUM NOT ACHIEVED WITHIN TOLERANCE.
 
 START OF ITERATIVE SOLVER, NUMBER OF EQUATIONS = 2196 NUMBER OF RHS = 1
 
 ITERATIVE SOLVER CONVERGED.
 NUM. ITERATIONS =   37 RELATIVE RESIDUAL NORM =  5.207e-06 RHS NORM =  3.497e-03
 
 END OF ITERATIVE SOLVER
 ELAPSED WALLCLOCK TIME (SEC) = 0.1


               CONVERGENCE CHECKS FOR EQUILIBRIUM ITERATION     2


 AVERAGE FORCE                      6.434E-02   TIME AVG. FORCE       3.092E-02
 LARGEST RESIDUAL FORCE             1.141E-04   AT NODE         46   DOF  2
   INSTANCE: PART-1-1                                                                        
 LARGEST INCREMENT OF DISP.         1.705E-04   AT NODE         68   DOF  3
   INSTANCE: PART-1-1                                                                        
 LARGEST CORRECTION TO DISP.        2.690E-07   AT NODE        286   DOF  3
   INSTANCE: PART-1-1                                                                        
          THE FORCE     EQUILIBRIUM EQUATIONS HAVE CONVERGED
          TIME INCREMENT MAY NOW INCREASE TO    0.605    

 ITERATION SUMMARY FOR THE INCREMENT:   2 TOTAL ITERATIONS, OF WHICH
   0 ARE SEVERE DISCONTINUITY ITERATIONS AND  2 ARE EQUILIBRIUM ITERATIONS.

 TIME INCREMENT COMPLETED  0.550    ,  FRACTION OF STEP COMPLETED  0.991    
 STEP TIME COMPLETED        248.    ,  TOTAL TIME COMPLETED         248.    


  INCREMENT   252 STARTS. ATTEMPT NUMBER  1, TIME INCREMENT  0.605    
 
 START OF ITERATIVE SOLVER, NUMBER OF EQUATIONS = 2196 NUMBER OF RHS = 1
 
 ITERATIVE SOLVER CONVERGED.
 NUM. ITERATIONS =   27 RELATIVE RESIDUAL NORM =  7.035e-06 RHS NORM =  1.784e-02
 
 END OF ITERATIVE SOLVER
 ELAPSED WALLCLOCK TIME (SEC) = 0.1


               CONVERGENCE CHECKS FOR EQUILIBRIUM ITERATION     1


 AVERAGE FORCE                      6.456E-02   TIME AVG. FORCE       3.106E-02
 LARGEST RESIDUAL FORCE             2.868E-03   AT NODE         46   DOF  2
   INSTANCE: PART-1-1                                                                        
 LARGEST INCREMENT OF DISP.         1.938E-04   AT NODE         68   DOF  3
   INSTANCE: PART-1-1                                                                        
 LARGEST CORRECTION TO DISP.        6.240E-06   AT NODE         68   DOF  3
   INSTANCE: PART-1-1                                                                        
          FORCE     EQUILIBRIUM NOT ACHIEVED WITHIN TOLERANCE.
 
 START OF ITERATIVE SOLVER, NUMBER OF EQUATIONS = 2196 NUMBER OF RHS = 1
 
 ITERATIVE SOLVER CONVERGED.
 NUM. ITERATIONS =   29 RELATIVE RESIDUAL NORM =  1.265e-05 RHS NORM =  4.015e-03
 
 END OF ITERATIVE SOLVER
 ELAPSED WALLCLOCK TIME (SEC) = 0.1


               CONVERGENCE CHECKS FOR EQUILIBRIUM ITERATION     2


 AVERAGE FORCE                      6.456E-02   TIME AVG. FORCE       3.106E-02
 LARGEST RESIDUAL FORCE             1.519E-04   AT NODE         46   DOF  2
   INSTANCE: PART-1-1                                                                        
 LARGEST INCREMENT OF DISP.         1.941E-04   AT NODE         68   DOF  3
   INSTANCE: PART-1-1                                                                        
 LARGEST CORRECTION TO DISP.        3.431E-07   AT NODE        286   DOF  3
   INSTANCE: PART-1-1                                                                        
          THE FORCE     EQUILIBRIUM EQUATIONS HAVE CONVERGED
          TIME INCREMENT MAY NOW INCREASE TO    0.666    

 ITERATION SUMMARY FOR THE INCREMENT:   2 TOTAL ITERATIONS, OF WHICH
   0 ARE SEVERE DISCONTINUITY ITERATIONS AND  2 ARE EQUILIBRIUM ITERATIONS.

 TIME INCREMENT COMPLETED  0.605    ,  FRACTION OF STEP COMPLETED  0.993    
 STEP TIME COMPLETED        248.    ,  TOTAL TIME COMPLETED         248.    


  INCREMENT   253 STARTS. ATTEMPT NUMBER  1, TIME INCREMENT  0.666    
 
 START OF ITERATIVE SOLVER, NUMBER OF EQUATIONS = 2196 NUMBER OF RHS = 1
 
 ITERATIVE SOLVER CONVERGED.
 NUM. ITERATIONS =   26 RELATIVE RESIDUAL NORM =  4.930e-06 RHS NORM =  1.973e-02
 
 END OF ITERATIVE SOLVER
 ELAPSED WALLCLOCK TIME (SEC) = 0.1


               CONVERGENCE CHECKS FOR EQUILIBRIUM ITERATION     1


 AVERAGE FORCE                      6.477E-02   TIME AVG. FORCE       3.119E-02
 LARGEST RESIDUAL FORCE             3.103E-03   AT NODE         46   DOF  2
   INSTANCE: PART-1-1                                                                        
 LARGEST INCREMENT OF DISP.         2.200E-04   AT NODE         68   DOF  3
   INSTANCE: PART-1-1                                                                        
 LARGEST CORRECTION TO DISP.        6.514E-06   AT NODE         68   DOF  3
   INSTANCE: PART-1-1                                                                        
          FORCE     EQUILIBRIUM NOT ACHIEVED WITHIN TOLERANCE.
 
 START OF ITERATIVE SOLVER, NUMBER OF EQUATIONS = 2196 NUMBER OF RHS = 1
 
 ITERATIVE SOLVER CONVERGED.
 NUM. ITERATIONS =   31 RELATIVE RESIDUAL NORM =  3.605e-05 RHS NORM =  4.358e-03
 
 END OF ITERATIVE SOLVER
 ELAPSED WALLCLOCK TIME (SEC) = 0.1


               CONVERGENCE CHECKS FOR EQUILIBRIUM ITERATION     2


 AVERAGE FORCE                      6.477E-02   TIME AVG. FORCE       3.119E-02
 LARGEST RESIDUAL FORCE             1.558E-04   AT NODE         46   DOF  2
   INSTANCE: PART-1-1                                                                        
 LARGEST INCREMENT OF DISP.         2.203E-04   AT NODE         68   DOF  3
   INSTANCE: PART-1-1                                                                        
 LARGEST CORRECTION TO DISP.        3.530E-07   AT NODE        286   DOF  3
   INSTANCE: PART-1-1                                                                        
          THE FORCE     EQUILIBRIUM EQUATIONS HAVE CONVERGED
          TIME INCREMENT MAY NOW INCREASE TO    0.732    

 ITERATION SUMMARY FOR THE INCREMENT:   2 TOTAL ITERATIONS, OF WHICH
   0 ARE SEVERE DISCONTINUITY ITERATIONS AND  2 ARE EQUILIBRIUM ITERATIONS.

 TIME INCREMENT COMPLETED  0.666    ,  FRACTION OF STEP COMPLETED  0.996    
 STEP TIME COMPLETED        249.    ,  TOTAL TIME COMPLETED         249.    


  INCREMENT   254 STARTS. ATTEMPT NUMBER  1, TIME INCREMENT  0.732    
 
 START OF ITERATIVE SOLVER, NUMBER OF EQUATIONS = 2196 NUMBER OF RHS = 1
 
 ITERATIVE SOLVER CONVERGED.
 NUM. ITERATIONS =   27 RELATIVE RESIDUAL NORM =  1.539e-06 RHS NORM =  2.349e-02
 
 END OF ITERATIVE SOLVER
 ELAPSED WALLCLOCK TIME (SEC) = 0.1


               CONVERGENCE CHECKS FOR EQUILIBRIUM ITERATION     1


 AVERAGE FORCE                      6.508E-02   TIME AVG. FORCE       3.132E-02
 LARGEST RESIDUAL FORCE             3.378E-03   AT NODE         46   DOF  2
   INSTANCE: PART-1-1                                                                        
 LARGEST INCREMENT OF DISP.         2.491E-04   AT NODE         68   DOF  3
   INSTANCE: PART-1-1                                                                        
 LARGEST CORRECTION TO DISP.        6.776E-06   AT NODE         68   DOF  3
   INSTANCE: PART-1-1                                                                        
          FORCE     EQUILIBRIUM NOT ACHIEVED WITHIN TOLERANCE.
 
 START OF ITERATIVE SOLVER, NUMBER OF EQUATIONS = 2196 NUMBER OF RHS = 1
 
 ITERATIVE SOLVER CONVERGED.
 NUM. ITERATIONS =   34 RELATIVE RESIDUAL NORM =  4.525e-06 RHS NORM =  4.763e-03
 
 END OF ITERATIVE SOLVER
 ELAPSED WALLCLOCK TIME (SEC) = 0.1


               CONVERGENCE CHECKS FOR EQUILIBRIUM ITERATION     2


 AVERAGE FORCE                      6.507E-02   TIME AVG. FORCE       3.132E-02
 LARGEST RESIDUAL FORCE             1.555E-04   AT NODE         46   DOF  2
   INSTANCE: PART-1-1                                                                        
 LARGEST INCREMENT OF DISP.         2.494E-04   AT NODE         68   DOF  3
   INSTANCE: PART-1-1                                                                        
 LARGEST CORRECTION TO DISP.        3.596E-07   AT NODE        286   DOF  3
   INSTANCE: PART-1-1                                                                        
          THE FORCE     EQUILIBRIUM EQUATIONS HAVE CONVERGED

 ITERATION SUMMARY FOR THE INCREMENT:   2 TOTAL ITERATIONS, OF WHICH
   0 ARE SEVERE DISCONTINUITY ITERATIONS AND  2 ARE EQUILIBRIUM ITERATIONS.

 TIME INCREMENT COMPLETED  0.732    ,  FRACTION OF STEP COMPLETED  0.999    
 STEP TIME COMPLETED        250.    ,  TOTAL TIME COMPLETED         250.    


  INCREMENT   255 STARTS. ATTEMPT NUMBER  1, TIME INCREMENT  0.230    
 
 START OF ITERATIVE SOLVER, NUMBER OF EQUATIONS = 2196 NUMBER OF RHS = 1
 
 ITERATIVE SOLVER CONVERGED.
 NUM. ITERATIONS =   20 RELATIVE RESIDUAL NORM =  2.883e-06 RHS NORM =  3.185e-02
 
 END OF ITERATIVE SOLVER
 ELAPSED WALLCLOCK TIME (SEC) = 0.1


               CONVERGENCE CHECKS FOR EQUILIBRIUM ITERATION     1


 AVERAGE FORCE                      6.522E-02   TIME AVG. FORCE       3.146E-02
 LARGEST RESIDUAL FORCE            -7.824E-04   AT NODE         46   DOF  2
   INSTANCE: PART-1-1                                                                        
 LARGEST INCREMENT OF DISP.         7.567E-05   AT NODE         68   DOF  3
   INSTANCE: PART-1-1                                                                        
 LARGEST CORRECTION TO DISP.       -2.577E-06   AT NODE        203   DOF  3
   INSTANCE: PART-1-1                                                                        
          FORCE     EQUILIBRIUM NOT ACHIEVED WITHIN TOLERANCE.
 
 START OF ITERATIVE SOLVER, NUMBER OF EQUATIONS = 2196 NUMBER OF RHS = 1
 
 ITERATIVE SOLVER CONVERGED.
 NUM. ITERATIONS =   22 RELATIVE RESIDUAL NORM =  1.812e-05 RHS NORM =  1.217e-03
 
 END OF ITERATIVE SOLVER
 ELAPSED WALLCLOCK TIME (SEC) = 0.1


               CONVERGENCE CHECKS FOR EQUILIBRIUM ITERATION     2


 AVERAGE FORCE                      6.522E-02   TIME AVG. FORCE       3.146E-02
 LARGEST RESIDUAL FORCE            -1.318E-05   AT NODE         44   DOF  3
   INSTANCE: PART-1-1                                                                        
 LARGEST INCREMENT OF DISP.         7.566E-05   AT NODE         68   DOF  3
   INSTANCE: PART-1-1                                                                        
 LARGEST CORRECTION TO DISP.        2.351E-08   AT NODE        518   DOF  1
   INSTANCE: PART-1-1                                                                        
          THE FORCE     EQUILIBRIUM EQUATIONS HAVE CONVERGED

 ITERATION SUMMARY FOR THE INCREMENT:   2 TOTAL ITERATIONS, OF WHICH
   0 ARE SEVERE DISCONTINUITY ITERATIONS AND  2 ARE EQUILIBRIUM ITERATIONS.

 TIME INCREMENT COMPLETED  0.230    ,  FRACTION OF STEP COMPLETED   1.00    
 STEP TIME COMPLETED        250.    ,  TOTAL TIME COMPLETED         250.    


          THE ANALYSIS HAS BEEN COMPLETED



     ANALYSIS SUMMARY:
     TOTAL OF        255  INCREMENTS
                       2  CUTBACKS IN AUTOMATIC INCREMENTATION
                     367  ITERATIONS INCLUDING CONTACT ITERATIONS IF PRESENT
                     367  PASSES THROUGH THE EQUATION SOLVER OF WHICH 
                     367  INVOLVE MATRIX DECOMPOSITION, INCLUDING
                       0  DECOMPOSITION(S) OF THE MASS MATRIX
                       1  REORDERING OF EQUATIONS TO MINIMIZE WAVEFRONT
                       0  ADDITIONAL RESIDUAL EVALUATIONS FOR LINE SEARCHES
                       0  ADDITIONAL OPERATOR EVALUATIONS FOR LINE SEARCHES
                       0  WARNING MESSAGES DURING USER INPUT PROCESSING
                       0  WARNING MESSAGES DURING ANALYSIS
                       0  ANALYSIS WARNINGS ARE NUMERICAL PROBLEM MESSAGES
                       0  ANALYSIS WARNINGS ARE NEGATIVE EIGENVALUE MESSAGES
                       0  ERROR MESSAGES



     JOB TIME SUMMARY
       USER TIME (SEC)      =   219.17    
       SYSTEM TIME (SEC)    =   3.8200    
       TOTAL CPU TIME (SEC) =   222.99    
       WALLCLOCK TIME (SEC) =        234
